@<TRIPOS>MOLECULE
01E
   87    88     1     0     0
SMALL
No Charge or Current Charge


@<TRIPOS>ATOM
      1 CA          -8.2810    -1.0670    -1.0380 c3         1 01E      -0.152400
      2 CB          -8.7460    -2.3170    -1.8540 c3         1 01E      -0.035000
      3 CG1         -9.0660    -3.5140    -0.9190 c3         1 01E      -0.087767
      4 CG2        -10.0310    -1.9420    -2.6380 c3         1 01E      -0.087767
      5 CG3         -7.6510    -2.7380    -2.8710 c3         1 01E      -0.087767
      6 C           -7.0870    -1.3090    -0.1000 c          1 01E       0.609100
      7 O           -7.2110    -1.7780     1.0230 o          1 01E      -0.608100
      8 N           -5.8700    -0.8940    -0.5920 ns         1 01E      -0.498900
      9 CA1         -4.5790    -0.9240     0.1440 c3         1 01E       0.041700
     10 CB1         -3.7380    -2.2220    -0.1820 c3         1 01E      -0.049000
     11 CG11        -3.3230    -2.2530    -1.6800 c3         1 01E      -0.088433
     12 CG21        -2.4540    -2.2930     0.6930 c3         1 01E      -0.088433
     13 CG31        -4.5650    -3.5020     0.1310 c3         1 01E      -0.088433
     14 C1          -3.8320     0.4170    -0.1520 c          1 01E       0.598100
     15 O1          -4.0410     1.0880    -1.1550 o          1 01E      -0.612100
     16 N1          -2.9240     0.8320     0.8040 ns         1 01E      -0.496900
     17 CA2         -2.2260     2.1450     0.7810 c3         1 01E       0.042700
     18 CB2         -2.0910     2.7070     2.2210 c3         1 01E      -0.165400
     19 CG          -3.4060     3.0620     2.9430 c          1 01E       0.573900
     20 OD1         -4.4830     3.0050     2.3560 o          1 01E      -0.522100
     21 ND2         -3.3350     3.4630     4.3070 n          1 01E       0.014200
     22 CE1         -4.4160     3.7740     5.1190 cc         1 01E      -0.169500
     23 CH1         -3.9820     4.1230     6.3750 cd         1 01E      -0.163500
     24 CE2         -2.1970     3.6330     5.0890 cc         1 01E      -0.169500
     25 CH2         -2.5530     4.0320     6.3550 cd         1 01E      -0.163500
     26 C2          -0.8520     2.0780     0.0430 c          1 01E       0.579100
     27 O2          -0.1100     3.0470    -0.0520 o          1 01E      -0.620100
     28 N2          -0.5000     0.8530    -0.4820 ns         1 01E      -0.485900
     29 CA3          0.7350     0.5700    -1.2160 c3         1 01E       0.095700
     30 C3           0.6610     1.1070    -2.6770 c3         1 01E       0.075300
     31 O3          -0.3230     0.3660    -3.4490 oh         1 01E      -0.644000
     32 CB3          1.0760    -0.9340    -1.1040 c3         1 01E      -0.113100
     33 C11          2.0630     1.0830    -3.3520 c          1 01E       0.568100
     34 O11          2.4170     0.1710    -4.0900 o          1 01E      -0.608100
     35 N21          2.8600     2.1810    -3.1070 ns         1 01E      -0.495900
     36 C31          4.2320     2.3340    -3.5930 c3         1 01E       0.141300
     37 C4           5.2300     1.7810    -2.5860 ca         1 01E      -0.095300
     38 C5           5.6130     0.4250    -2.6380 ca         1 01E      -0.101000
     39 C6           6.5260    -0.0890    -1.7000 ca         1 01E      -0.079500
     40 C7           7.0580     0.7490    -0.7070 ca         1 01E       0.200000
     41 I7           8.4620    -0.0450     0.7390 i          1 01E      -0.309000
     42 C8           6.6800     2.1000    -0.6480 ca         1 01E      -0.079500
     43 C9           5.7670     2.6150    -1.5850 ca         1 01E      -0.101000
     44 HA1         -8.0130    -0.2850    -1.7600 hc         1 01E       0.064200
     45 HA2         -9.1200    -0.7210    -0.4230 hc         1 01E       0.064200
     46 H11         -9.7960    -3.2280    -0.1520 hc         1 01E       0.037033
     47 H12         -9.4870    -4.3520    -1.4890 hc         1 01E       0.037033
     48 H13         -8.1650    -3.8820    -0.4140 hc         1 01E       0.037033
     49 H21         -9.8460    -1.1000    -3.3160 hc         1 01E       0.037033
     50 H22        -10.3860    -2.7870    -3.2410 hc         1 01E       0.037033
     51 H23        -10.8390    -1.6550    -1.9540 hc         1 01E       0.037033
     52 H31         -6.7300    -3.0440    -2.3650 hc         1 01E       0.037033
     53 H32         -7.9900    -3.5830    -3.4820 hc         1 01E       0.037033
     54 H33         -7.4050    -1.9110    -3.5490 hc         1 01E       0.037033
     55 H           -5.8750    -0.4730    -1.5150 hn         1 01E       0.329500
     56 HA          -4.8010    -0.9180     1.2200 h1         1 01E       0.088700
     57 HG11        -2.6920    -1.3940    -1.9380 hc         1 01E       0.039367
     58 HG12        -2.7530    -3.1620    -1.9080 hc         1 01E       0.039367
     59 HG13        -4.2010    -2.2380    -2.3370 hc         1 01E       0.039367
     60 HG21        -2.6970    -2.1940     1.7580 hc         1 01E       0.039367
     61 HG22        -1.9410    -3.2530     0.5570 hc         1 01E       0.039367
     62 HG23        -1.7350    -1.5120     0.4280 hc         1 01E       0.039367
     63 HG31        -5.4490    -3.5830    -0.5100 hc         1 01E       0.039367
     64 HG32        -3.9670    -4.4070    -0.0300 hc         1 01E       0.039367
     65 HG33        -4.9020    -3.5050     1.1750 hc         1 01E       0.039367
     66 H1          -2.8220     0.2410     1.6220 hn         1 01E       0.326500
     67 HA3         -2.8310     2.8500     0.1950 h1         1 01E       0.107700
     68 HB2         -1.5060     2.0400     2.8640 hc         1 01E       0.091700
     69 HB3         -1.4730     3.6130     2.2390 hc         1 01E       0.091700
     70 HE1         -5.4100     3.7070     4.6910 h4         1 01E       0.157500
     71 HH1         -4.6040     4.4140     7.2170 ha         1 01E       0.136500
     72 HE2         -1.2240     3.4510     4.6500 h4         1 01E       0.157500
     73 HH2         -1.8770     4.2410     7.1800 ha         1 01E       0.136500
     74 H2          -1.1900     0.1200    -0.3990 hn         1 01E       0.343500
     75 HA4          1.5440     1.1150    -0.7080 h1         1 01E       0.069700
     76 HB1          0.3010    -1.5540    -1.5700 hc         1 01E       0.051367
     77 HB21         2.0340    -1.1570    -1.5870 hc         1 01E       0.051367
     78 HB31         1.1580    -1.2290    -0.0510 hc         1 01E       0.051367
     79 HN2          2.4840     2.9000    -2.5000 hn         1 01E       0.327500
     80 H311         4.3460     1.8190    -4.5570 h1         1 01E       0.070200
     81 H321         4.4300     3.4000    -3.7630 h1         1 01E       0.070200
     82 H5           5.2010    -0.2300    -3.4020 ha         1 01E       0.118000
     83 H6           6.8200    -1.1340    -1.7400 ha         1 01E       0.129000
     84 H8           7.0930     2.7430     0.1230 ha         1 01E       0.129000
     85 H9           5.4750     3.6630    -1.5310 ha         1 01E       0.118000
     86 H43          0.3650     2.1640    -2.6300 h1         1 01E       0.087700
     87 H44          0.1800    -0.3010    -3.9720 ho         1 01E       0.472000
@<TRIPOS>BOND
     1     1     2 1   
     2     1     6 1   
     3     1    44 1   
     4     1    45 1   
     5     2     3 1   
     6     2     4 1   
     7     2     5 1   
     8     3    46 1   
     9     3    47 1   
    10     3    48 1   
    11     4    49 1   
    12     4    50 1   
    13     4    51 1   
    14     5    52 1   
    15     5    53 1   
    16     5    54 1   
    17     6     7 2   
    18     6     8 1   
    19     8     9 1   
    20     8    55 1   
    21     9    10 1   
    22     9    14 1   
    23     9    56 1   
    24    10    11 1   
    25    10    12 1   
    26    10    13 1   
    27    11    57 1   
    28    11    58 1   
    29    11    59 1   
    30    12    60 1   
    31    12    61 1   
    32    12    62 1   
    33    13    63 1   
    34    13    64 1   
    35    13    65 1   
    36    14    15 2   
    37    14    16 1   
    38    16    17 1   
    39    16    66 1   
    40    17    18 1   
    41    17    26 1   
    42    17    67 1   
    43    18    19 1   
    44    18    68 1   
    45    18    69 1   
    46    19    20 2   
    47    19    21 1   
    48    21    22 1   
    49    21    24 1   
    50    22    23 2   
    51    22    70 1   
    52    23    25 1   
    53    23    71 1   
    54    24    25 2   
    55    24    72 1   
    56    25    73 1   
    57    26    27 2   
    58    26    28 1   
    59    28    29 1   
    60    28    74 1   
    61    29    30 1   
    62    29    32 1   
    63    29    75 1   
    64    30    31 1   
    65    30    33 1   
    66    30    86 1   
    67    31    87 1   
    68    32    76 1   
    69    32    77 1   
    70    32    78 1   
    71    33    34 2   
    72    33    35 1   
    73    35    36 1   
    74    35    79 1   
    75    36    37 1   
    76    36    80 1   
    77    36    81 1   
    78    37    38 ar  
    79    37    43 ar  
    80    38    39 ar  
    81    38    82 1   
    82    39    40 ar  
    83    39    83 1   
    84    40    41 1   
    85    40    42 ar  
    86    42    43 ar  
    87    42    84 1   
    88    43    85 1   
@<TRIPOS>SUBSTRUCTURE
     1 01E         1 TEMP              0 ****  ****    0 ROOT
