@<TRIPOS>MOLECULE
01F
   11    10     1     0     0
SMALL
abcg2


@<TRIPOS>ATOM
      1 C           -1.0030     0.0280    -0.0050 c          1 01F       0.822100
      2 O           -1.1700    -1.1990    -0.0080 o          1 01F      -0.727500
      3 O1           0.3000     0.5020     0.0090 os         1 01F      -0.545100
      4 C1           1.3530    -0.4410     0.0260 c3         1 01F       0.201600
      5 C2           2.6640     0.3190     0.0200 c3         1 01F      -0.091100
      6 H241         1.2990    -1.0790     0.9150 h1         1 01F       0.009700
      7 H242         1.3060    -1.1040    -0.8440 h1         1 01F       0.009700
      8 H251         2.7640     0.9350    -0.8750 hc         1 01F       0.016367
      9 H252         2.7550     0.9670     0.8930 hc         1 01F       0.016367
     10 H253         3.5000    -0.3800     0.0370 hc         1 01F       0.016367
     11 OXT         -1.8420     0.9360    -0.0130 o          1 01F      -0.727500
@<TRIPOS>BOND
     1     1     2 1   
     2     1     3 1   
     3     1    11 1   
     4     3     4 1   
     5     4     5 1   
     6     4     6 1   
     7     4     7 1   
     8     5     8 1   
     9     5     9 1   
    10     5    10 1   
@<TRIPOS>SUBSTRUCTURE
     1 01F         1 TEMP              0 ****  ****    0 ROOT
