@<TRIPOS>MOLECULE
01F
   11    10     1     0     0
SMALL
No Charge or Current Charge


@<TRIPOS>ATOM
      1 C           -1.0010     0.0470    -0.0030 c          1 01F       0.822100
      2 O           -1.2300    -1.1520     0.0110 o          1 01F      -0.727500
      3 O1           0.2870     0.4980     0.0010 os         1 01F      -0.545100
      4 C1           1.3610    -0.4600     0.0220 c3         1 01F       0.201600
      5 C2           2.6870     0.3200     0.0210 c3         1 01F      -0.091100
      6 H241         1.3100    -1.0860     0.9230 h1         1 01F       0.009700
      7 H242         1.3230    -1.1100    -0.8630 h1         1 01F       0.009700
      8 H251         2.7720     0.9430    -0.8780 hc         1 01F       0.016367
      9 H252         2.7590     0.9660     0.9050 hc         1 01F       0.016367
     10 H253         3.5350    -0.3750     0.0370 hc         1 01F       0.016367
     11 OXT         -1.8770     0.8930    -0.0210 o          1 01F      -0.727500
@<TRIPOS>BOND
     1     1     2 1   
     2     1     3 1   
     3     1    11 1   
     4     3     4 1   
     5     4     5 1   
     6     4     6 1   
     7     4     7 1   
     8     5     8 1   
     9     5     9 1   
    10     5    10 1   
@<TRIPOS>SUBSTRUCTURE
     1 01F         1 TEMP              0 ****  ****    0 ROOT
