@<TRIPOS>MOLECULE
01H
   20    19     1     0     0
SMALL
No Charge or Current Charge


@<TRIPOS>ATOM
      1 N1           3.8060    -0.3350     0.1050 n8         1 01H      -0.995200
      2 C2           2.5810     0.4650    -0.0710 c3         1 01H       0.149800
      3 C3           1.3140    -0.4060     0.0490 c3         1 01H      -0.078400
      4 C4           0.0090     0.4020    -0.1350 c3         1 01H      -0.080400
      5 C5          -1.2600    -0.4700    -0.0180 c3         1 01H       0.138800
      6 N6          -2.4760     0.3570    -0.2060 n7         1 01H      -0.640200
      7 N7          -3.7550    -0.3650    -0.2350 n8         1 01H      -0.772000
      8 HN11         4.6210     0.2910     0.0790 hn         1 01H       0.391500
      9 HN12         3.8240    -0.7120     1.0610 hn         1 01H       0.391500
     10 H21A         2.5620     1.2540     0.6940 h1         1 01H       0.026700
     11 H22A         2.6110     0.9400    -1.0610 h1         1 01H       0.026700
     12 H31          1.3510    -1.2030    -0.7050 hc         1 01H       0.046700
     13 H32          1.2990    -0.8930     1.0320 hc         1 01H       0.046700
     14 H41         -0.0270     1.1990     0.6190 hc         1 01H       0.043200
     15 H42          0.0240     0.8880    -1.1180 hc         1 01H       0.043200
     16 H51         -1.2160    -1.2650    -0.7750 h1         1 01H       0.041700
     17 H52         -1.2730    -0.9500     0.9710 h1         1 01H       0.041700
     18 HN6         -2.4760     1.1660     0.4460 hn         1 01H       0.398000
     19 HN7         -4.2260    -0.4280     0.6840 hn         1 01H       0.390000
     20 H2          -4.4380     0.0260    -0.9070 hn         1 01H       0.390000
@<TRIPOS>BOND
     1     1     2 1   
     2     1     8 1   
     3     1     9 1   
     4     2     3 1   
     5     2    10 1   
     6     2    11 1   
     7     3     4 1   
     8     3    12 1   
     9     3    13 1   
    10     4     5 1   
    11     4    14 1   
    12     4    15 1   
    13     5     6 1   
    14     5    16 1   
    15     5    17 1   
    16     6     7 1   
    17     6    18 1   
    18     7    19 1   
    19     7    20 1   
@<TRIPOS>SUBSTRUCTURE
     1 01H         1 TEMP              0 ****  ****    0 ROOT
