@<TRIPOS>MOLECULE
01H
   20    19     1     0     0
SMALL
bcc


@<TRIPOS>ATOM
      1 N1           3.7170    -0.3700     0.0110 n8         1 01H      -0.884800
      2 C2           2.5240     0.4630    -0.0580 c3         1 01H       0.149800
      3 C3           1.2630    -0.3840     0.0130 c3         1 01H      -0.078400
      4 C4          -0.0080     0.4540    -0.0510 c3         1 01H      -0.080400
      5 C5          -1.2670    -0.3960    -0.0020 c3         1 01H       0.138800
      6 N6          -2.4510     0.4430    -0.0720 n7         1 01H      -0.585000
      7 N7          -3.6250    -0.3940     0.0590 n8         1 01H      -0.661600
      8 HN11         4.5400     0.2130    -0.0680 hn         1 01H       0.336300
      9 HN12         3.7730    -0.7920     0.9300 hn         1 01H       0.336300
     10 H21A         2.4810     1.2300     0.7290 h1         1 01H       0.026700
     11 H22A         2.5370     1.0020    -1.0090 h1         1 01H       0.026700
     12 H31          1.2730    -1.1100    -0.8060 hc         1 01H       0.046700
     13 H32          1.2700    -0.9660     0.9420 hc         1 01H       0.046700
     14 H41         -0.0160     1.1650     0.7830 hc         1 01H       0.043200
     15 H42         -0.0120     1.0510    -0.9680 hc         1 01H       0.043200
     16 H51         -1.2760    -1.0750    -0.8620 h1         1 01H       0.041700
     17 H52         -1.2590    -1.0320     0.8970 h1         1 01H       0.041700
     18 HN6         -2.4520     1.0160     0.7650 hn         1 01H       0.342800
     19 HN7         -4.4030     0.2520     0.1330 hn         1 01H       0.334800
     20 H2          -3.7540    -0.8080    -0.8590 hn         1 01H       0.334800
@<TRIPOS>BOND
     1     1     2 1   
     2     1     8 1   
     3     1     9 1   
     4     2     3 1   
     5     2    10 1   
     6     2    11 1   
     7     3     4 1   
     8     3    12 1   
     9     3    13 1   
    10     4     5 1   
    11     4    14 1   
    12     4    15 1   
    13     5     6 1   
    14     5    16 1   
    15     5    17 1   
    16     6     7 1   
    17     6    18 1   
    18     7    19 1   
    19     7    20 1   
@<TRIPOS>SUBSTRUCTURE
     1 01H         1 TEMP              0 ****  ****    0 ROOT
