@<TRIPOS>MOLECULE
01I
   28    31     1     0     0
SMALL
bcc


@<TRIPOS>ATOM
      1 CAA          1.4180     2.1070    -0.0060 ca         1 01I      -0.108000
      2 CAB          2.3490     1.0910     0.0060 ca         1 01I      -0.101800
      3 CAC          1.9110    -0.2520     0.0210 ca         1 01I       0.056100
      4 CAD          0.5920    -0.6200     0.0230 ca         1 01I      -0.131000
      5 CAE         -0.3600     0.4120     0.0110 ca         1 01I       0.020000
      6 CAF          0.0490     1.7850    -0.0030 ca         1 01I      -0.071000
      7 CAG         -1.7610     0.1570     0.0140 ca         1 01I      -0.106800
      8 CAH         -2.6540     1.2110     0.0060 ca         1 01I       0.002100
      9 CAI         -2.2740     2.5630    -0.0080 ca         1 01I      -0.111000
     10 CAJ         -0.9350     2.8240    -0.0130 ca         1 01I      -0.138000
     11 CAK          3.7830     1.0110     0.0120 cc         1 01I      -0.241200
     12 CAL          4.0960    -0.3020     0.0300 cd         1 01I       0.002900
     13 OAM          2.9730    -1.0830     0.0340 os         1 01I      -0.160200
     14 CAN         -2.5680    -1.0220     0.0250 cc         1 01I      -0.207200
     15 CAO         -3.8590    -0.6040     0.0230 cd         1 01I      -0.028100
     16 OAP         -3.9180     0.7570     0.0120 os         1 01I      -0.140200
     17 CAQ         -5.1480    -1.3750     0.0340 c          1 01I       0.949800
     18 CAR          5.4360    -0.9900     0.0490 c          1 01I       0.947800
     19 OAS          6.4120    -0.2190     0.0500 o          1 01I      -0.807800
     20 OAT         -6.1960    -0.7090     0.0450 o          1 01I      -0.811300
     21 OAU         -5.0140    -2.6120     0.0320 o          1 01I      -0.811300
     22 OAV          5.4230    -2.2300     0.0630 o          1 01I      -0.807800
     23 HAA          1.7270     3.1450    -0.0170 ha         1 01I       0.113000
     24 HAD          0.2920    -1.6600     0.0350 ha         1 01I       0.147000
     25 HAI         -3.0080     3.3570    -0.0160 ha         1 01I       0.123000
     26 HAJ         -0.5910     3.8510    -0.0240 ha         1 01I       0.105000
     27 HAK          4.4840     1.8290     0.0050 ha         1 01I       0.155000
     28 HAN         -2.2420    -2.0490     0.0330 ha         1 01I       0.162000
@<TRIPOS>BOND
     1     1     2 ar  
     2     1     6 ar  
     3     1    23 1   
     4     2     3 ar  
     5     2    11 1   
     6     3     4 ar  
     7     3    13 1   
     8     4     5 ar  
     9     4    24 1   
    10     5     6 ar  
    11     5     7 ar  
    12     6    10 ar  
    13     7     8 ar  
    14     7    14 1   
    15     8     9 ar  
    16     8    16 1   
    17     9    10 ar  
    18     9    25 1   
    19    10    26 1   
    20    11    12 2   
    21    11    27 1   
    22    12    13 1   
    23    12    18 1   
    24    14    15 2   
    25    14    28 1   
    26    15    16 1   
    27    15    17 1   
    28    17    20 1   
    29    17    21 1   
    30    18    19 1   
    31    18    22 1   
@<TRIPOS>SUBSTRUCTURE
     1 01I         1 TEMP              0 ****  ****    0 ROOT
