@<TRIPOS>MOLECULE
01I
   28    31     1     0     0
SMALL
No Charge or Current Charge


@<TRIPOS>ATOM
      1 CAA          1.4330     2.1000    -0.0010 ca         1 01I      -0.090000
      2 CAB          2.3240     1.0200     0.0130 ca         1 01I      -0.101800
      3 CAC          1.8790    -0.2820     0.0270 ca         1 01I       0.056100
      4 CAD          0.5210    -0.6140     0.0290 ca         1 01I      -0.113000
      5 CAE         -0.4050     0.4540     0.0150 ca         1 01I       0.020000
      6 CAF          0.0470     1.8130     0.0000 ca         1 01I      -0.071000
      7 CAG         -1.7920     0.2280     0.0160 ca         1 01I      -0.106800
      8 CAH         -2.6840     1.2780     0.0030 ca         1 01I       0.002100
      9 CAI         -2.2770     2.6160    -0.0120 ca         1 01I      -0.093000
     10 CAJ         -0.8900     2.8780    -0.0130 ca         1 01I      -0.120000
     11 CAK          3.7720     0.9900     0.0150 cc         1 01I      -0.291200
     12 CAL          4.1000    -0.3650     0.0310 cd         1 01I       0.002900
     13 OAM          2.9490    -1.1250     0.0380 os         1 01I      -0.160200
     14 CAN         -2.5670    -1.0000     0.0290 cc         1 01I      -0.257200
     15 CAO         -3.8970    -0.5830     0.0220 cd         1 01I      -0.028100
     16 OAP         -3.9570     0.7930     0.0060 os         1 01I      -0.140200
     17 CAQ         -5.1260    -1.4450     0.0310 c          1 01I       0.739200
     18 CAR          5.4740    -0.9780     0.0400 c          1 01I       0.737200
     19 OAS          6.4490    -0.2360     0.0330 o          1 01I      -0.702500
     20 OAT         -6.2260    -0.9050     0.0230 o          1 01I      -0.706000
     21 OAU         -4.9890    -2.6620     0.0450 o          1 01I      -0.706000
     22 OAV          5.5760    -2.1990     0.0550 o          1 01I      -0.702500
     23 HAA          1.7980     3.1230    -0.0120 ha         1 01I       0.095000
     24 HAD          0.2010    -1.6520     0.0400 ha         1 01I       0.129000
     25 HAI         -3.0050     3.4230    -0.0220 ha         1 01I       0.105000
     26 HAJ         -0.5430     3.9090    -0.0250 ha         1 01I       0.087000
     27 HAK          4.4710     1.8230     0.0070 ha         1 01I       0.205000
     28 HAN         -2.2180    -2.0290     0.0410 ha         1 01I       0.212000
@<TRIPOS>BOND
     1     1     2 ar  
     2     1     6 ar  
     3     1    23 1   
     4     2     3 ar  
     5     2    11 1   
     6     3     4 ar  
     7     3    13 1   
     8     4     5 ar  
     9     4    24 1   
    10     5     6 ar  
    11     5     7 ar  
    12     6    10 ar  
    13     7     8 ar  
    14     7    14 1   
    15     8     9 ar  
    16     8    16 1   
    17     9    10 ar  
    18     9    25 1   
    19    10    26 1   
    20    11    12 2   
    21    11    27 1   
    22    12    13 1   
    23    12    18 1   
    24    14    15 2   
    25    14    28 1   
    26    15    16 1   
    27    15    17 1   
    28    17    20 1   
    29    17    21 1   
    30    18    19 1   
    31    18    22 1   
@<TRIPOS>SUBSTRUCTURE
     1 01I         1 TEMP              0 ****  ****    0 ROOT
