@<TRIPOS>MOLECULE
01J
   49    51     1     0     0
SMALL
No Charge or Current Charge


@<TRIPOS>ATOM
      1 C10         -0.8820    -1.5010     1.4740 c          1 01J       0.723000
      2 O10         -0.5330    -0.8340     2.4400 o          1 01J      -0.701500
      3 C11         -0.3130    -1.0990     0.0490 c3         1 01J       0.065500
      4 C12         -1.3290    -0.2580    -0.7980 c3         1 01J       0.041900
      5 N13          1.0640    -0.4680     0.0170 n7         1 01J      -0.907400
      6 C14          2.1670    -1.3010     0.2610 c3         1 01J       0.672700
      7 O14          2.0970    -1.3920     1.6050 oh         1 01J      -0.757000
      8 C21         -2.7540    -0.8150    -0.7130 ca         1 01J      -0.023300
      9 C22         -3.6680    -0.3310     0.2490 ca         1 01J      -0.094750
     10 C23         -4.9750    -0.8460     0.3110 ca         1 01J      -0.120000
     11 C24         -5.3810    -1.8480    -0.5850 ca         1 01J      -0.128500
     12 C25         -4.4780    -2.3370    -1.5430 ca         1 01J      -0.120000
     13 C26         -3.1710    -1.8230    -1.6070 ca         1 01J      -0.094750
     14 C31         -1.3250     1.2780    -0.6400 ca         1 01J      -0.023300
     15 C32         -1.8550     2.0530    -1.6950 ca         1 01J      -0.094750
     16 C33         -1.9010     3.4550    -1.6100 ca         1 01J      -0.120000
     17 C34         -1.4200     4.1050    -0.4640 ca         1 01J      -0.128500
     18 C35         -0.8950     3.3510     0.5950 ca         1 01J      -0.120000
     19 C36         -0.8500     1.9480     0.5110 ca         1 01J      -0.094750
     20 N41          3.3500    -0.5640    -0.1250 n3         1 01J      -0.773600
     21 C42          4.5870    -1.4040    -0.0600 c6         1 01J       0.146300
     22 C43          5.8410    -0.6380    -0.5840 c6         1 01J       0.150600
     23 O44          6.0090     0.6120     0.1260 os         1 01J      -0.466000
     24 C45          4.8540     1.4780     0.0060 c6         1 01J       0.150600
     25 C46          3.5770     0.7670     0.5500 c6         1 01J       0.146300
     26 H11         -0.2340    -2.0550    -0.4870 h1         1 01J       0.018700
     27 H12         -0.9960    -0.4230    -1.8300 hc         1 01J       0.022700
     28 HN3          1.2340    -0.1850    -0.9490 hn         1 01J       0.409000
     29 H14          2.0760    -2.3040    -0.1720 h3         1 01J       0.005700
     30 HO4          1.2690    -0.8570     1.6450 ho         1 01J       0.540000
     31 H22         -3.3680     0.4410     0.9520 ha         1 01J       0.117250
     32 H23         -5.6720    -0.4670     1.0550 ha         1 01J       0.096000
     33 H24         -6.3920    -2.2450    -0.5360 ha         1 01J       0.092500
     34 H25         -4.7900    -3.1140    -2.2370 ha         1 01J       0.096000
     35 H26         -2.4810    -2.2110    -2.3530 ha         1 01J       0.117250
     36 H32         -2.2370     1.5620    -2.5870 ha         1 01J       0.117250
     37 H33         -2.3120     4.0350    -2.4330 ha         1 01J       0.096000
     38 H34         -1.4560     5.1900    -0.3970 ha         1 01J       0.092500
     39 H35         -0.5220     3.8520     1.4860 ha         1 01J       0.096000
     40 H36         -0.4370     1.3950     1.3460 ha         1 01J       0.117250
     41 H421         4.7820    -1.7220     0.9750 h1         1 01J       0.049700
     42 H422         4.4600    -2.3190    -0.6570 h1         1 01J       0.049700
     43 H431         6.7410    -1.2540    -0.4450 h1         1 01J       0.034950
     44 H432         5.7320    -0.4310    -1.6590 h1         1 01J       0.034950
     45 H451         5.0380     2.4010     0.5730 h1         1 01J       0.034950
     46 H452         4.7130     1.7470    -1.0510 h1         1 01J       0.034950
     47 H461         2.7240     1.4440     0.3990 h1         1 01J       0.049700
     48 H462         3.6970     0.6390     1.6360 h1         1 01J       0.049700
     49 OXT         -1.4410    -2.5840     1.5890 o          1 01J      -0.701500
@<TRIPOS>BOND
     1     1     2 1   
     2     1     3 1   
     3     1    49 1   
     4     3     4 1   
     5     3     5 1   
     6     3    26 1   
     7     4     8 1   
     8     4    14 1   
     9     4    27 1   
    10     5     6 1   
    11     5    28 1   
    12     6     7 1   
    13     6    20 1   
    14     6    29 1   
    15     7    30 1   
    16     8     9 ar  
    17     8    13 ar  
    18     9    10 ar  
    19     9    31 1   
    20    10    11 ar  
    21    10    32 1   
    22    11    12 ar  
    23    11    33 1   
    24    12    13 ar  
    25    12    34 1   
    26    13    35 1   
    27    14    15 ar  
    28    14    19 ar  
    29    15    16 ar  
    30    15    36 1   
    31    16    17 ar  
    32    16    37 1   
    33    17    18 ar  
    34    17    38 1   
    35    18    19 ar  
    36    18    39 1   
    37    19    40 1   
    38    20    21 1   
    39    20    25 1   
    40    21    22 1   
    41    21    41 1   
    42    21    42 1   
    43    22    23 1   
    44    22    43 1   
    45    22    44 1   
    46    23    24 1   
    47    24    25 1   
    48    24    45 1   
    49    24    46 1   
    50    25    47 1   
    51    25    48 1   
@<TRIPOS>SUBSTRUCTURE
     1 01J         1 TEMP              0 ****  ****    0 ROOT
