@<TRIPOS>MOLECULE
01J
   49    51     1     0     0
SMALL
abcg2


@<TRIPOS>ATOM
      1 C10         -0.7520    -0.8990     1.8340 c          1 01J       0.723000
      2 O10          0.1110    -0.5430     2.6770 o          1 01J      -0.701500
      3 C11         -0.3410    -0.9300     0.3430 c3         1 01J       0.065500
      4 C12         -1.3520    -0.1940    -0.5740 c3         1 01J       0.041900
      5 N13          0.9720    -0.3600     0.0920 n7         1 01J      -0.907400
      6 C14          2.1080    -1.2240     0.2930 c3         1 01J       0.672700
      7 O14          2.2390    -1.5560     1.6400 oh         1 01J      -0.757000
      8 C21         -2.7230    -0.8430    -0.6340 ca         1 01J      -0.023300
      9 C22         -3.9080    -0.1620    -0.3780 ca         1 01J      -0.094750
     10 C23         -5.1420    -0.7850    -0.5260 ca         1 01J      -0.120000
     11 C24         -5.2180    -2.1040    -0.9460 ca         1 01J      -0.128500
     12 C25         -4.0430    -2.7900    -1.2290 ca         1 01J      -0.120000
     13 C26         -2.8170    -2.1630    -1.0780 ca         1 01J      -0.094750
     14 C31         -1.3540     1.3000    -0.3350 ca         1 01J      -0.023300
     15 C32         -0.9220     2.1500    -1.3500 ca         1 01J      -0.094750
     16 C33         -0.8840     3.5270    -1.1750 ca         1 01J      -0.120000
     17 C34         -1.2810     4.0840     0.0320 ca         1 01J      -0.128500
     18 C35         -1.7210     3.2490     1.0520 ca         1 01J      -0.120000
     19 C36         -1.7570     1.8740     0.8710 ca         1 01J      -0.094750
     20 N41          3.2640    -0.5580    -0.2630 n3         1 01J      -0.773600
     21 C42          4.4200    -1.4180    -0.4170 c6         1 01J       0.146300
     22 C43          5.4890    -0.6860    -1.2070 c6         1 01J       0.150600
     23 O44          5.8560     0.5260    -0.5850 os         1 01J      -0.466000
     24 C45          4.7310     1.3610    -0.4050 c6         1 01J       0.150600
     25 C46          3.6440     0.6770     0.4020 c6         1 01J       0.146300
     26 H11         -0.3700    -1.9930     0.0460 h1         1 01J       0.018700
     27 H12         -0.9470    -0.3320    -1.5840 hc         1 01J       0.022700
     28 HN3          1.0250    -0.0050    -0.8540 hn         1 01J       0.409000
     29 H14          2.0150    -2.1700    -0.2770 h3         1 01J       0.005700
     30 HO4          1.5300    -1.0590     2.1340 ho         1 01J       0.540000
     31 H22         -3.8840     0.8710    -0.0570 ha         1 01J       0.117250
     32 H23         -6.0470    -0.2300    -0.3140 ha         1 01J       0.096000
     33 H24         -6.1790    -2.5880    -1.0670 ha         1 01J       0.092500
     34 H25         -4.0820    -3.8160    -1.5750 ha         1 01J       0.096000
     35 H26         -1.9140    -2.7130    -1.3180 ha         1 01J       0.117250
     36 H32         -0.6040     1.7280    -2.2970 ha         1 01J       0.117250
     37 H33         -0.5440     4.1620    -1.9830 ha         1 01J       0.096000
     38 H34         -1.2540     5.1570     0.1760 ha         1 01J       0.092500
     39 H35         -2.0430     3.6710     1.9960 ha         1 01J       0.096000
     40 H36         -2.1280     1.2540     1.6750 ha         1 01J       0.117250
     41 H421         4.8390    -1.7390     0.5500 h1         1 01J       0.049700
     42 H422         4.1360    -2.3220    -0.9630 h1         1 01J       0.049700
     43 H431         6.3890    -1.2980    -1.2840 h1         1 01J       0.034950
     44 H432         5.1180    -0.4970    -2.2250 h1         1 01J       0.034950
     45 H451         5.0730     2.2600     0.1100 h1         1 01J       0.034950
     46 H452         4.3210     1.6650    -1.3800 h1         1 01J       0.034950
     47 H461         2.7800     1.3390     0.4630 h1         1 01J       0.049700
     48 H462         4.0030     0.5050     1.4270 h1         1 01J       0.049700
     49 OXT         -1.9070    -1.2620     2.0950 o          1 01J      -0.701500
@<TRIPOS>BOND
     1     1     2 1   
     2     1     3 1   
     3     1    49 1   
     4     3     4 1   
     5     3     5 1   
     6     3    26 1   
     7     4     8 1   
     8     4    14 1   
     9     4    27 1   
    10     5     6 1   
    11     5    28 1   
    12     6     7 1   
    13     6    20 1   
    14     6    29 1   
    15     7    30 1   
    16     8     9 ar  
    17     8    13 ar  
    18     9    10 ar  
    19     9    31 1   
    20    10    11 ar  
    21    10    32 1   
    22    11    12 ar  
    23    11    33 1   
    24    12    13 ar  
    25    12    34 1   
    26    13    35 1   
    27    14    15 ar  
    28    14    19 ar  
    29    15    16 ar  
    30    15    36 1   
    31    16    17 ar  
    32    16    37 1   
    33    17    18 ar  
    34    17    38 1   
    35    18    19 ar  
    36    18    39 1   
    37    19    40 1   
    38    20    21 1   
    39    20    25 1   
    40    21    22 1   
    41    21    41 1   
    42    21    42 1   
    43    22    23 1   
    44    22    43 1   
    45    22    44 1   
    46    23    24 1   
    47    24    25 1   
    48    24    45 1   
    49    24    46 1   
    50    25    47 1   
    51    25    48 1   
@<TRIPOS>SUBSTRUCTURE
     1 01J         1 TEMP              0 ****  ****    0 ROOT
