@<TRIPOS>MOLECULE
01M
   24    24     1     0     0
SMALL
No Charge or Current Charge


@<TRIPOS>ATOM
      1 C27         -2.3200    -0.4420    -0.4130 c          1 01M       0.724000
      2 O28         -2.6990    -0.9350    -1.4640 o          1 01M      -0.733500
      3 C29         -0.8970     0.1410    -0.3610 c6         1 01M      -0.219700
      4 C30         -0.0440    -0.6240     0.6790 c6         1 01M       0.229800
      5 N31          1.3440    -0.0920     0.6960 nh         1 01M      -0.751600
      6 C32          1.4040     1.3570     1.0340 c6         1 01M       0.212800
      7 C33          0.5670     2.1980     0.0320 c6         1 01M      -0.112400
      8 C34         -0.8860     1.6690    -0.0650 c6         1 01M      -0.056400
      9 C35          2.3160    -0.7180    -0.0040 c2         1 01M       0.800100
     10 N37          2.6620    -1.8890     0.2620 n2         1 01M      -0.888100
     11 N36          2.7730    -0.0560    -1.0520 nv         1 01M      -1.075200
     12 H29         -0.4480    -0.0140    -1.3520 hc         1 01M       0.033700
     13 H301        -0.5010    -0.5010     1.6730 h1         1 01M       0.072200
     14 H302        -0.0550    -1.7020     0.4570 h1         1 01M       0.072200
     15 H321         0.9910     1.5100     2.0420 h1         1 01M       0.037200
     16 H322         2.4450     1.7130     1.0590 h1         1 01M       0.037200
     17 H331         0.5590     3.2490     0.3500 hc         1 01M       0.021200
     18 H332         1.0340     2.1810    -0.9610 hc         1 01M       0.021200
     19 H341        -1.4310     2.2110    -0.8490 hc         1 01M       0.043700
     20 H342        -1.4100     1.8720     0.8790 hc         1 01M       0.043700
     21 HN7          3.3920    -2.1450    -0.4090 hn         1 01M       0.351400
     22 HN61         2.1740     0.7360    -1.2280 hn         1 01M       0.435500
     23 HN62         2.9280    -0.6440    -1.8570 hn         1 01M       0.435500
     24 OXT         -3.0040    -0.3950     0.5990 o          1 01M      -0.733500
@<TRIPOS>BOND
     1     1     2 1   
     2     1     3 1   
     3     1    24 1   
     4     3     4 1   
     5     3     8 1   
     6     3    12 1   
     7     4     5 1   
     8     4    13 1   
     9     4    14 1   
    10     5     6 1   
    11     5     9 1   
    12     6     7 1   
    13     6    15 1   
    14     6    16 1   
    15     7     8 1   
    16     7    17 1   
    17     7    18 1   
    18     8    19 1   
    19     8    20 1   
    20     9    10 2   
    21     9    11 1   
    22    10    21 1   
    23    11    22 1   
    24    11    23 1   
@<TRIPOS>SUBSTRUCTURE
     1 01M         1 TEMP              0 ****  ****    0 ROOT
