@<TRIPOS>MOLECULE
01M
   24    24     1     0     0
SMALL
bcc


@<TRIPOS>ATOM
      1 C27         -2.4240    -0.5150    -0.1970 c          1 01M       0.934600
      2 O28         -3.3000     0.0840    -0.8530 o          1 01M      -0.838800
      3 C29         -0.9890     0.0430    -0.2840 c6         1 01M      -0.219700
      4 C30         -0.0700    -0.5100     0.8050 c6         1 01M       0.229800
      5 N31          1.2760     0.0260     0.6810 nh         1 01M      -0.751600
      6 C32          1.3030     1.4720     0.7840 c6         1 01M       0.212800
      7 C33          0.4650     2.1170    -0.3140 c6         1 01M      -0.112400
      8 C34         -0.9610     1.5730    -0.2720 c6         1 01M      -0.056400
      9 C35          2.2140    -0.6940    -0.0150 c2         1 01M       0.800100
     10 N37          2.0510    -1.9560    -0.2070 n2         1 01M      -0.888100
     11 N36          3.3540    -0.0000    -0.3820 nv         1 01M      -0.964800
     12 H29         -0.5780    -0.2880    -1.2500 hc         1 01M       0.033700
     13 H301        -0.4550    -0.2300     1.7920 h1         1 01M       0.072200
     14 H302        -0.0240    -1.5930     0.7680 h1         1 01M       0.072200
     15 H321         0.8760     1.7370     1.7570 h1         1 01M       0.037200
     16 H322         2.3250     1.8470     0.8000 h1         1 01M       0.037200
     17 H331         0.4650     3.2030    -0.1890 hc         1 01M       0.021200
     18 H332         0.9150     1.9080    -1.2910 hc         1 01M       0.021200
     19 H341        -1.5440     1.9640    -1.1060 hc         1 01M       0.043700
     20 H342        -1.4460     1.9340     0.6430 hc         1 01M       0.043700
     21 HN7          2.8360    -2.3360    -0.7220 hn         1 01M       0.351400
     22 HN61         3.2420     0.9460    -0.7110 hn         1 01M       0.380300
     23 HN62         3.9640    -0.5190    -0.9940 hn         1 01M       0.380300
     24 OXT         -2.6000    -1.5340     0.5030 o          1 01M      -0.838800
@<TRIPOS>BOND
     1     1     2 1   
     2     1     3 1   
     3     1    24 1   
     4     3     4 1   
     5     3     8 1   
     6     3    12 1   
     7     4     5 1   
     8     4    13 1   
     9     4    14 1   
    10     5     6 1   
    11     5     9 1   
    12     6     7 1   
    13     6    15 1   
    14     6    16 1   
    15     7     8 1   
    16     7    17 1   
    17     7    18 1   
    18     8    19 1   
    19     8    20 1   
    20     9    10 2   
    21     9    11 1   
    22    10    21 1   
    23    11    22 1   
    24    11    23 1   
@<TRIPOS>SUBSTRUCTURE
     1 01M         1 TEMP              0 ****  ****    0 ROOT
