@<TRIPOS>MOLECULE
01N
   33    33     1     0     0
SMALL
bcc


@<TRIPOS>ATOM
      1 C           -1.2090    -2.8780    -0.0250 c          1 01N       0.895600
      2 O           -1.3740    -3.2870    -1.2090 o          1 01N      -0.552300
      3 CA          -0.6820    -1.4250     0.2290 c3         1 01N       0.074500
      4 CB           0.6940    -1.3660    -0.4580 c3         1 01N      -0.078400
      5 CG           1.4710    -0.0800    -0.2440 c6         1 01N      -0.080700
      6 CD1          1.9930     0.0250     1.1820 c6         1 01N      -0.070900
      7 CE1          2.7950     1.2950     1.3840 c6         1 01N      -0.078900
      8 CZ           3.9430     1.3830     0.3990 c6         1 01N      -0.079400
      9 CE2          3.4400     1.2640    -1.0260 c6         1 01N      -0.078900
     10 CD2          2.6390    -0.0070    -1.2220 c6         1 01N      -0.070900
     11 N           -1.6530    -0.4230    -0.1790 n7         1 01N      -0.587200
     12 C1          -1.6330     0.8200     0.5630 c3         1 01N       0.062800
     13 C2          -1.4170     2.1270    -0.2300 c          1 01N       0.889600
     14 O21         -1.7870     3.2080     0.3250 o          1 01N      -0.610300
     15 O22         -0.8620     2.1000    -1.3680 o          1 01N      -0.610300
     16 H13         -0.5240    -1.3350     1.3440 h1         1 01N       0.122700
     17 H141         1.2980    -2.2340    -0.0840 hc         1 01N       0.087200
     18 H142         0.5340    -1.5210    -1.5580 hc         1 01N       0.087200
     19 H15          0.7850     0.7970    -0.4530 hc         1 01N       0.074700
     20 H161         1.1250     0.0150     1.8930 hc         1 01N       0.041950
     21 H162         2.6330    -0.8660     1.4170 hc         1 01N       0.041950
     22 H171         2.1190     2.1800     1.2470 hc         1 01N       0.051200
     23 H172         3.1960     1.3290     2.4300 hc         1 01N       0.051200
     24 H181         4.4810     2.3580     0.5300 hc         1 01N       0.045200
     25 H182         4.6790     0.5630     0.6070 hc         1 01N       0.045200
     26 H191         2.7880     2.1460    -1.2640 hc         1 01N       0.051200
     27 H192         4.3100     1.2790    -1.7330 hc         1 01N       0.051200
     28 H201         3.3040    -0.8990    -1.0840 hc         1 01N       0.041950
     29 H202         2.2410    -0.0370    -2.2690 hc         1 01N       0.041950
     30 H5          -1.5570    -0.2380    -1.1620 hn         1 01N       0.461800
     31 H211        -2.6350     0.9000     1.0740 h1         1 01N       0.114200
     32 H212        -0.8530     0.8170     1.3770 h1         1 01N       0.114200
     33 OXT         -1.3850    -3.6120     0.9930 o          1 01N      -0.552300
@<TRIPOS>BOND
     1     1     2 1   
     2     1     3 1   
     3     1    33 1   
     4     3     4 1   
     5     3    11 1   
     6     3    16 1   
     7     4     5 1   
     8     4    17 1   
     9     4    18 1   
    10     5     6 1   
    11     5    10 1   
    12     5    19 1   
    13     6     7 1   
    14     6    20 1   
    15     6    21 1   
    16     7     8 1   
    17     7    22 1   
    18     7    23 1   
    19     8     9 1   
    20     8    24 1   
    21     8    25 1   
    22     9    10 1   
    23     9    26 1   
    24     9    27 1   
    25    10    28 1   
    26    10    29 1   
    27    11    12 1   
    28    11    30 1   
    29    12    13 1   
    30    12    31 1   
    31    12    32 1   
    32    13    14 1   
    33    13    15 1   
@<TRIPOS>SUBSTRUCTURE
     1 01N         1 TEMP              0 ****  ****    0 ROOT
