@<TRIPOS>MOLECULE
01O
   23    23     1     0     0
SMALL
bcc


@<TRIPOS>ATOM
      1 N           -2.4980     1.8030     0.6590 n2         1 01O      -0.840100
      2 C           -2.0990     0.7540     0.0440 ce         1 01O       0.683800
      3 N1          -2.9580     0.0610    -0.7600 nv         1 01O      -0.924800
      4 C1          -0.7300     0.2230     0.1470 cc         1 01O      -0.249200
      5 N2          -0.3810    -1.1030     0.1470 na         1 01O      -0.025100
      6 C2          -1.2670    -2.2510     0.1520 c3         1 01O       0.029600
      7 C3           0.9690    -1.2010     0.2490 cc         1 01O      -0.119300
      8 C4           0.4320     0.9610     0.2470 cd         1 01O      -0.161000
      9 C5           1.5170     0.0610     0.3080 cd         1 01O      -0.165300
     10 C6           2.9710     0.4050     0.3660 c3         1 01O       0.227100
     11 N3           3.6070     0.2380    -0.9390 n8         1 01O      -0.882800
     12 H           -1.7820     2.1290     1.2980 hn         1 01O       0.393400
     13 H11A        -3.8460     0.5070    -0.9300 hn         1 01O       0.410300
     14 H12         -2.5800    -0.4050    -1.5690 hn         1 01O       0.410300
     15 H21         -1.6460    -2.4730    -0.8440 h1         1 01O       0.054700
     16 H22         -0.7100    -3.1140     0.5070 h1         1 01O       0.054700
     17 H23         -2.1080    -2.0860     0.8200 h1         1 01O       0.054700
     18 H3           1.4480    -2.1670     0.2920 h4         1 01O       0.168000
     19 H4           0.4930     2.0390     0.2500 ha         1 01O       0.150000
     20 H61          3.0730     1.4190     0.7750 h1         1 01O       0.031200
     21 H62          3.4780    -0.2580     1.0710 h1         1 01O       0.031200
     22 HN3          3.1980     0.8960    -1.5910 hn         1 01O       0.335300
     23 H2           4.5830     0.5000    -0.8650 hn         1 01O       0.335300
@<TRIPOS>BOND
     1     1     2 2   
     2     1    12 1   
     3     2     3 1   
     4     2     4 1   
     5     3    13 1   
     6     3    14 1   
     7     4     5 1   
     8     4     8 2   
     9     5     6 1   
    10     5     7 1   
    11     6    15 1   
    12     6    16 1   
    13     6    17 1   
    14     7     9 2   
    15     7    18 1   
    16     8     9 1   
    17     8    19 1   
    18     9    10 1   
    19    10    11 1   
    20    10    20 1   
    21    10    21 1   
    22    11    22 1   
    23    11    23 1   
@<TRIPOS>SUBSTRUCTURE
     1 01O         1 TEMP              0 ****  ****    0 ROOT
