@<TRIPOS>MOLECULE
01O
   23    23     1     0     0
SMALL
No Charge or Current Charge


@<TRIPOS>ATOM
      1 N           -2.3840     1.8530     0.5300 n2         1 01O      -0.840100
      2 C           -2.1070     0.7230     0.0350 ce         1 01O       0.683800
      3 N1          -3.0600     0.0970    -0.6670 nv         1 01O      -1.035200
      4 C1          -0.7490     0.1980     0.0780 cc         1 01O      -0.299900
      5 N2          -0.3780    -1.1580     0.1470 na         1 01O       0.047000
      6 C2          -1.2920    -2.3120     0.1670 c3         1 01O       0.058900
      7 C3           1.0110    -1.2750     0.2360 cc         1 01O      -0.152000
      8 C4           0.4320     0.8890     0.2080 cd         1 01O      -0.143000
      9 C5           1.5180    -0.0050     0.2830 cd         1 01O      -0.165300
     10 C6           2.9680     0.3830     0.4140 c3         1 01O       0.227100
     11 N3           3.6110     0.3600    -0.9080 n8         1 01O      -0.993200
     12 H           -1.5320     2.1830     1.0010 hn         1 01O       0.393400
     13 H11A        -3.8470     0.6940    -0.8850 hn         1 01O       0.465500
     14 H12         -2.7230    -0.4770    -1.4290 hn         1 01O       0.465500
     15 H21         -1.6760    -2.4960    -0.8430 h1         1 01O       0.054700
     16 H22         -0.7570    -3.2030     0.5150 h1         1 01O       0.054700
     17 H23         -2.1280    -2.1110     0.8490 h1         1 01O       0.054700
     18 H3           1.5130    -2.2340     0.2790 h4         1 01O       0.150000
     19 H4           0.5220     1.9720     0.2330 ha         1 01O       0.132000
     20 H61          3.0450     1.3960     0.8350 h1         1 01O       0.031200
     21 H62          3.4870    -0.3180     1.0820 h1         1 01O       0.031200
     22 HN3          3.1300     1.0390    -1.5080 hn         1 01O       0.390500
     23 H2           4.5610     0.7400    -0.8170 hn         1 01O       0.390500
@<TRIPOS>BOND
     1     1     2 2   
     2     1    12 1   
     3     2     3 1   
     4     2     4 1   
     5     3    13 1   
     6     3    14 1   
     7     4     5 1   
     8     4     8 2   
     9     5     6 1   
    10     5     7 1   
    11     6    15 1   
    12     6    16 1   
    13     6    17 1   
    14     7     9 2   
    15     7    18 1   
    16     8     9 1   
    17     8    19 1   
    18     9    10 1   
    19    10    11 1   
    20    10    20 1   
    21    10    21 1   
    22    11    22 1   
    23    11    23 1   
@<TRIPOS>SUBSTRUCTURE
     1 01O         1 TEMP              0 ****  ****    0 ROOT
