@<TRIPOS>MOLECULE
01P
   56    60     1     0     0
SMALL
No Charge or Current Charge


@<TRIPOS>ATOM
      1 C1           2.4180    -3.8080    -0.4400 ca         1 01P      -0.332000
      2 N1          -5.7020     0.2180     0.2220 nh         1 01P      -0.756400
      3 O1          -8.5420     0.6160     0.6420 os         1 01P      -0.452000
      4 C2          -7.6660     1.7690     0.6270 c6         1 01P       0.152100
      5 N2           4.2270    -2.2250    -0.4060 nu         1 01P      -0.927900
      6 O2          -4.0150     2.0980    -1.1140 os         1 01P      -0.325100
      7 C3          -6.2160     1.3670     1.0350 c6         1 01P       0.149300
      8 N3           7.1130     0.1430    -0.6270 nb         1 01P      -0.635000
      9 C4           0.7070    -1.7610    -0.3090 ca         1 01P       0.423900
     10 N4           0.1680    -2.9930    -0.3730 nb         1 01P      -0.256000
     11 C5          -6.6740    -0.9170     0.1020 c6         1 01P       0.149300
     12 N5           2.0110    -1.4560    -0.3210 nb         1 01P      -0.320000
     13 C6          -8.1060    -0.4230    -0.2670 c6         1 01P       0.152100
     14 N6          -0.1350    -0.6610    -0.2820 nu         1 01P      -0.925900
     15 C7           4.9830     2.1870     1.6030 ca         1 01P      -0.100000
     16 C8           5.8080     3.3090     1.7810 ca         1 01P      -0.099000
     17 C9           7.0600     3.3640     1.1500 ca         1 01P      -0.112000
     18 C10          7.4880     2.2950     0.3420 ca         1 01P      -0.071000
     19 C11         -2.3410    -1.4010     0.5010 ca         1 01P      -0.153000
     20 C12         -1.5110    -0.4780    -0.1560 ca         1 01P       0.341000
     21 C13         -2.0650     0.6970    -0.6770 ca         1 01P      -0.253000
     22 C14         -3.4540     0.9490    -0.5710 ca         1 01P       0.166100
     23 C15         -4.3000     0.0060     0.0840 ca         1 01P       0.201000
     24 C16         -3.7210    -1.1640     0.6150 ca         1 01P      -0.097000
     25 C17         -3.2380     3.0980    -1.7950 c3         1 01P       0.144900
     26 C18          5.0140    -1.0640    -0.2030 ca         1 01P       0.249000
     27 C19          4.5770    -0.0050     0.6150 ca         1 01P      -0.100000
     28 C20          5.4090     1.1180     0.7910 ca         1 01P      -0.052000
     29 C21          6.6760     1.1610     0.1500 ca         1 01P       0.239000
     30 C22          6.3040    -0.9350    -0.7900 ca         1 01P       0.315900
     31 C23          1.0320    -4.0220    -0.4350 ca         1 01P       0.173900
     32 C24          2.8650    -2.4880    -0.3710 ca         1 01P       0.423900
     33 H1           3.1090    -4.6430    -0.4930 ha         1 01P       0.134000
     34 H2          -7.6610     2.2060    -0.3820 h1         1 01P       0.051200
     35 H2A         -8.0530     2.5260     1.3240 h1         1 01P       0.051200
     36 HN2          4.7630    -3.0370    -0.7170 hn         1 01P       0.502000
     37 H3          -6.2110     1.0970     2.1010 h1         1 01P       0.044450
     38 H3A         -5.5660     2.2470     0.9230 h1         1 01P       0.044450
     39 H5          -6.3390    -1.6230    -0.6720 h1         1 01P       0.044450
     40 H5A         -6.7250    -1.4690     1.0510 h1         1 01P       0.044450
     41 H6          -8.8130    -1.2630    -0.2200 h1         1 01P       0.051200
     42 H6A         -8.1120    -0.0300    -1.2940 h1         1 01P       0.051200
     43 HN6          0.3710     0.2020    -0.4730 hn         1 01P       0.506000
     44 H7           4.0130     2.1520     2.0940 ha         1 01P       0.114000
     45 H8           5.4770     4.1350     2.4070 ha         1 01P       0.114000
     46 H9           7.7020     4.2320     1.2870 ha         1 01P       0.117000
     47 H10          8.4600     2.3440    -0.1410 ha         1 01P       0.130000
     48 H11         -1.9230    -2.2970     0.9460 ha         1 01P       0.152000
     49 H13         -1.4080     1.4020    -1.1750 ha         1 01P       0.114000
     50 H16         -4.3380    -1.8890     1.1380 ha         1 01P       0.117000
     51 H17         -3.8870     3.9140    -2.1360 h1         1 01P       0.039367
     52 H17A        -2.4800     3.5250    -1.1260 h1         1 01P       0.039367
     53 H17B        -2.7370     2.6720    -2.6730 h1         1 01P       0.039367
     54 H19          3.6200    -0.0550     1.1230 ha         1 01P       0.151000
     55 H22          6.6990    -1.7290    -1.4220 h4         1 01P       0.012100
     56 H23          0.6080    -5.0240    -0.4860 h4         1 01P       0.023100
@<TRIPOS>BOND
     1     1    31 ar  
     2     1    32 ar  
     3     1    33 1   
     4     2     7 1   
     5     2    11 1   
     6     2    23 1   
     7     3     4 1   
     8     3    13 1   
     9     4     7 1   
    10     4    34 1   
    11     4    35 1   
    12     5    26 1   
    13     5    32 1   
    14     5    36 1   
    15     6    22 1   
    16     6    25 1   
    17     7    37 1   
    18     7    38 1   
    19     8    29 ar  
    20     8    30 ar  
    21     9    10 ar  
    22     9    12 ar  
    23     9    14 1   
    24    10    31 ar  
    25    11    13 1   
    26    11    39 1   
    27    11    40 1   
    28    12    32 ar  
    29    13    41 1   
    30    13    42 1   
    31    14    20 1   
    32    14    43 1   
    33    15    16 ar  
    34    15    28 ar  
    35    15    44 1   
    36    16    17 ar  
    37    16    45 1   
    38    17    18 ar  
    39    17    46 1   
    40    18    29 ar  
    41    18    47 1   
    42    19    20 ar  
    43    19    24 ar  
    44    19    48 1   
    45    20    21 ar  
    46    21    22 ar  
    47    21    49 1   
    48    22    23 ar  
    49    23    24 ar  
    50    24    50 1   
    51    25    51 1   
    52    25    52 1   
    53    25    53 1   
    54    26    27 ar  
    55    26    30 ar  
    56    27    28 ar  
    57    27    54 1   
    58    28    29 ar  
    59    30    55 1   
    60    31    56 1   
@<TRIPOS>SUBSTRUCTURE
     1 01P         1 TEMP              0 ****  ****    0 ROOT
