@<TRIPOS>MOLECULE
01P
   56    60     1     0     0
SMALL
abcg2


@<TRIPOS>ATOM
      1 C1           2.3650    -3.8610    -0.0190 ca         1 01P      -0.332000
      2 N1          -5.6640     0.3100    -0.1510 nh         1 01P      -0.756400
      3 O1          -8.4700     0.4460     0.1910 os         1 01P      -0.452000
      4 C2          -7.6250     1.4310     0.7440 c6         1 01P       0.152100
      5 N2           4.1520    -2.2840     0.0370 nu         1 01P      -0.927900
      6 O2          -3.8390     2.2890    -0.1610 os         1 01P      -0.325100
      7 C3          -6.2480     0.8780     1.0590 c6         1 01P       0.149300
      8 N3           7.1030    -0.2160     0.0450 nb         1 01P      -0.635000
      9 C4           0.6570    -1.8120     0.0430 ca         1 01P       0.423900
     10 N4           0.1290    -3.0250     0.0030 nb         1 01P      -0.256000
     11 C5          -6.5340    -0.7160    -0.6930 c6         1 01P       0.149300
     12 N5           1.9640    -1.5180     0.0590 nb         1 01P      -0.320000
     13 C6          -7.8990    -0.1140    -0.9710 c6         1 01P       0.152100
     14 N6          -0.1410    -0.7110     0.0700 nu         1 01P      -0.925900
     15 C7           4.7450     2.6140     0.2340 ca         1 01P      -0.100000
     16 C8           5.6310     3.6570     0.2550 ca         1 01P      -0.099000
     17 C9           7.0210     3.4170     0.2050 ca         1 01P      -0.112000
     18 C10          7.4990     2.1350     0.1360 ca         1 01P      -0.071000
     19 C11         -2.4480    -1.6030     0.0190 ca         1 01P      -0.153000
     20 C12         -1.5250    -0.5660     0.0250 ca         1 01P       0.341000
     21 C13         -1.9920     0.7570    -0.0200 ca         1 01P      -0.253000
     22 C14         -3.3460     1.0410    -0.0800 ca         1 01P       0.166100
     23 C15         -4.2940    -0.0050    -0.0680 ca         1 01P       0.201000
     24 C16         -3.8070    -1.3010    -0.0170 ca         1 01P      -0.097000
     25 C17         -2.9400     3.3800    -0.1660 c3         1 01P       0.144900
     26 C18          4.8530    -1.0900     0.0700 ca         1 01P       0.249000
     27 C19          4.3300     0.1780     0.1400 ca         1 01P      -0.100000
     28 C20          5.2120     1.2810     0.1630 ca         1 01P      -0.052000
     29 C21          6.6050     1.0440     0.1140 ca         1 01P       0.239000
     30 C22          6.2730    -1.2130     0.0250 ca         1 01P       0.315900
     31 C23          1.0060    -4.0320    -0.0280 ca         1 01P       0.173900
     32 C24          2.8150    -2.5260     0.0270 ca         1 01P       0.423900
     33 H1           3.0460    -4.7000    -0.0460 ha         1 01P       0.134000
     34 H2          -7.5230     2.2820     0.0560 h1         1 01P       0.051200
     35 H2A         -8.0990     1.7920     1.6580 h1         1 01P       0.051200
     36 HN2          4.7300    -3.1110     0.0000 hn         1 01P       0.502000
     37 H3          -6.3250     0.1190     1.8530 h1         1 01P       0.044450
     38 H3A         -5.6260     1.6870     1.4400 h1         1 01P       0.044450
     39 H5          -6.1180    -1.0930    -1.6290 h1         1 01P       0.044450
     40 H5A         -6.6480    -1.5740    -0.0120 h1         1 01P       0.044450
     41 H6          -8.5800    -0.8860    -1.3310 h1         1 01P       0.051200
     42 H6A         -7.8010     0.6480    -1.7570 h1         1 01P       0.051200
     43 HN6          0.3820     0.1510     0.0950 hn         1 01P       0.506000
     44 H7           3.6780     2.7950     0.2720 ha         1 01P       0.114000
     45 H8           5.2680     4.6750     0.3100 ha         1 01P       0.114000
     46 H9           7.7090     4.2510     0.2220 ha         1 01P       0.117000
     47 H10          8.5620     1.9360     0.0980 ha         1 01P       0.130000
     48 H11         -2.1270    -2.6310     0.0490 ha         1 01P       0.152000
     49 H13         -1.2660     1.5600    -0.0310 ha         1 01P       0.114000
     50 H16         -4.5050    -2.1290    -0.0060 ha         1 01P       0.117000
     51 H17         -3.5480     4.2790    -0.2260 h1         1 01P       0.039367
     52 H17A        -2.3430     3.4220     0.7490 h1         1 01P       0.039367
     53 H17B        -2.2680     3.3530    -1.0270 h1         1 01P       0.039367
     54 H19          3.2650     0.3440     0.1750 ha         1 01P       0.151000
     55 H22          6.7060    -2.2100    -0.0320 h4         1 01P       0.012100
     56 H23          0.5850    -5.0300    -0.0620 h4         1 01P       0.023100
@<TRIPOS>BOND
     1     1    31 ar  
     2     1    32 ar  
     3     1    33 1   
     4     2     7 1   
     5     2    11 1   
     6     2    23 1   
     7     3     4 1   
     8     3    13 1   
     9     4     7 1   
    10     4    34 1   
    11     4    35 1   
    12     5    26 1   
    13     5    32 1   
    14     5    36 1   
    15     6    22 1   
    16     6    25 1   
    17     7    37 1   
    18     7    38 1   
    19     8    29 ar  
    20     8    30 ar  
    21     9    10 ar  
    22     9    12 ar  
    23     9    14 1   
    24    10    31 ar  
    25    11    13 1   
    26    11    39 1   
    27    11    40 1   
    28    12    32 ar  
    29    13    41 1   
    30    13    42 1   
    31    14    20 1   
    32    14    43 1   
    33    15    16 ar  
    34    15    28 ar  
    35    15    44 1   
    36    16    17 ar  
    37    16    45 1   
    38    17    18 ar  
    39    17    46 1   
    40    18    29 ar  
    41    18    47 1   
    42    19    20 ar  
    43    19    24 ar  
    44    19    48 1   
    45    20    21 ar  
    46    21    22 ar  
    47    21    49 1   
    48    22    23 ar  
    49    23    24 ar  
    50    24    50 1   
    51    25    51 1   
    52    25    52 1   
    53    25    53 1   
    54    26    27 ar  
    55    26    30 ar  
    56    27    28 ar  
    57    27    54 1   
    58    28    29 ar  
    59    30    55 1   
    60    31    56 1   
@<TRIPOS>SUBSTRUCTURE
     1 01P         1 TEMP              0 ****  ****    0 ROOT
