@<TRIPOS>MOLECULE
01Q
   23    23     1     0     0
SMALL
bcc


@<TRIPOS>ATOM
      1 N            3.1260     0.5220    -0.8610 n2         1 01Q      -0.840100
      2 C            2.2420    -0.1170    -0.1910 ce         1 01Q       0.684800
      3 N1           2.5520    -1.3150     0.3870 nv         1 01Q      -0.925800
      4 C1           0.8690     0.3750     0.0170 cc         1 01Q      -0.242200
      5 N2          -0.2660    -0.3960     0.0780 na         1 01Q      -0.005100
      6 C2          -0.3610    -1.8250    -0.1490 c3         1 01Q       0.015600
      7 C3           0.5040     1.6870     0.2320 cd         1 01Q      -0.167000
      8 C4          -0.8880     1.7050     0.4380 cd         1 01Q      -0.199000
      9 C5          -1.3390     0.4080     0.3320 cc         1 01Q      -0.112600
     10 C6          -2.7400    -0.0960     0.4260 c3         1 01Q       0.216100
     11 N3          -3.2460    -0.5150    -0.8770 n8         1 01Q      -0.893800
     12 H            2.7100     1.3280    -1.3120 hn         1 01Q       0.393400
     13 H11A         3.5290    -1.5630     0.3790 hn         1 01Q       0.410800
     14 H12          2.0740    -1.5710     1.2350 hn         1 01Q       0.410800
     15 H21         -0.1890    -2.3900     0.7670 h1         1 01Q       0.061367
     16 H22         -1.3540    -2.0510    -0.5260 h1         1 01Q       0.061367
     17 H23          0.3650    -2.1380    -0.8930 h1         1 01Q       0.061367
     18 H3           1.1810     2.5260     0.2710 ha         1 01Q       0.153000
     19 H4          -1.5060     2.5650     0.6430 ha         1 01Q       0.149000
     20 H61         -2.7900    -0.9560     1.0980 h1         1 01Q       0.040200
     21 H62         -3.3370     0.6940     0.8980 h1         1 01Q       0.040200
     22 HN3         -4.1770    -0.8960    -0.7650 hn         1 01Q       0.344800
     23 H2          -3.3440     0.2980    -1.4730 hn         1 01Q       0.344800
@<TRIPOS>BOND
     1     1     2 2   
     2     1    12 1   
     3     2     3 1   
     4     2     4 1   
     5     3    13 1   
     6     3    14 1   
     7     4     5 1   
     8     4     7 2   
     9     5     6 1   
    10     5     9 1   
    11     6    15 1   
    12     6    16 1   
    13     6    17 1   
    14     7     8 1   
    15     7    18 1   
    16     8     9 2   
    17     8    19 1   
    18     9    10 1   
    19    10    11 1   
    20    10    20 1   
    21    10    21 1   
    22    11    22 1   
    23    11    23 1   
@<TRIPOS>SUBSTRUCTURE
     1 01Q         1 TEMP              0 ****  ****    0 ROOT
