@<TRIPOS>MOLECULE
01Q
   23    23     1     0     0
SMALL
No Charge or Current Charge


@<TRIPOS>ATOM
      1 N            3.1370     0.5570    -0.7670 n2         1 01Q      -0.840100
      2 C            2.2790    -0.1670    -0.1850 ce         1 01Q       0.684800
      3 N1           2.7040    -1.3030     0.3850 nv         1 01Q      -1.036200
      4 C1           0.9230     0.3120     0.0430 cc         1 01Q      -0.292900
      5 N2          -0.2470    -0.4750     0.0750 na         1 01Q       0.067000
      6 C2          -0.3010    -1.9380    -0.1150 c3         1 01Q       0.044900
      7 C3           0.4830     1.6110     0.1270 cd         1 01Q      -0.149000
      8 C4          -0.9110     1.6240     0.2930 cd         1 01Q      -0.181000
      9 C5          -1.3740     0.3390     0.2790 cc         1 01Q      -0.163300
     10 C6          -2.7930    -0.1440     0.4310 c3         1 01Q       0.216100
     11 N3          -3.4360    -0.2870    -0.8850 n8         1 01Q      -1.004200
     12 H            2.6400     1.3940    -1.0960 hn         1 01Q       0.393400
     13 H11A         3.7120    -1.3640     0.4390 hn         1 01Q       0.466000
     14 H12          2.2040    -1.5750     1.2210 hn         1 01Q       0.466000
     15 H21         -0.1080    -2.4400     0.8400 h1         1 01Q       0.061367
     16 H22         -1.2880    -2.2360    -0.4860 h1         1 01Q       0.061367
     17 H23          0.4500    -2.2460    -0.8520 h1         1 01Q       0.061367
     18 H3           1.1140     2.4960     0.0970 ha         1 01Q       0.135000
     19 H4          -1.5240     2.5130     0.4120 ha         1 01Q       0.131000
     20 H61         -2.8140    -1.1100     0.9540 h1         1 01Q       0.040200
     21 H62         -3.3620     0.5820     1.0290 h1         1 01Q       0.040200
     22 HN3         -4.4310    -0.4970    -0.7460 hn         1 01Q       0.400000
     23 H2          -3.4430     0.6340    -1.3400 hn         1 01Q       0.400000
@<TRIPOS>BOND
     1     1     2 2   
     2     1    12 1   
     3     2     3 1   
     4     2     4 1   
     5     3    13 1   
     6     3    14 1   
     7     4     5 1   
     8     4     7 2   
     9     5     6 1   
    10     5     9 1   
    11     6    15 1   
    12     6    16 1   
    13     6    17 1   
    14     7     8 1   
    15     7    18 1   
    16     8     9 2   
    17     8    19 1   
    18     9    10 1   
    19    10    11 1   
    20    10    20 1   
    21    10    21 1   
    22    11    22 1   
    23    11    23 1   
@<TRIPOS>SUBSTRUCTURE
     1 01Q         1 TEMP              0 ****  ****    0 ROOT
