@<TRIPOS>MOLECULE
01R
   21    21     1     0     0
SMALL
abcg2


@<TRIPOS>ATOM
      1 N19          4.2620     0.4820    -0.0080 n8         1 01R      -0.994200
      2 C20          3.1660    -0.4700     0.0170 c3         1 01R       0.133800
      3 C30          1.8410     0.2710    -0.0680 c3         1 01R       0.228800
      4 N27          0.7400    -0.6590    -0.0150 nu         1 01R      -0.981200
      5 C21         -0.5580    -0.2980    -0.0130 ca         1 01R       0.378000
      6 C22         -1.5820    -1.2650     0.0090 ca         1 01R      -0.258500
      7 C23         -2.8970    -0.8560     0.0210 ca         1 01R       0.372900
      8 N24         -3.2960     0.4170     0.0120 nb         1 01R      -0.706000
      9 C25         -2.3270     1.3270    -0.0120 ca         1 01R       0.372900
     10 C26         -0.9740     1.0440    -0.0260 ca         1 01R      -0.258500
     11 H19          4.2980     0.9770     0.8750 hn         1 01R       0.399000
     12 H201         3.2600    -1.1300    -0.8500 h1         1 01R       0.033200
     13 H202         3.1560    -1.1170     0.9050 h1         1 01R       0.033200
     14 H301         1.7730     0.9810     0.7650 h1         1 01R       0.050200
     15 H302         1.8190     0.8610    -0.9910 h1         1 01R       0.050200
     16 H27          0.9490    -1.6430    -0.0540 hn         1 01R       0.489000
     17 H22         -1.3430    -2.3210     0.0180 ha         1 01R       0.118000
     18 H23         -3.6800    -1.6070     0.0390 h4         1 01R       0.011100
     19 H25         -2.6430     2.3660    -0.0210 h4         1 01R       0.011100
     20 H26         -0.2640     1.8590    -0.0490 ha         1 01R       0.118000
     21 H2           5.1390    -0.0160    -0.0780 hn         1 01R       0.399000
@<TRIPOS>BOND
     1     1     2 1   
     2     1    11 1   
     3     1    21 1   
     4     2     3 1   
     5     2    12 1   
     6     2    13 1   
     7     3     4 1   
     8     3    14 1   
     9     3    15 1   
    10     4     5 1   
    11     4    16 1   
    12     5     6 ar  
    13     5    10 ar  
    14     6     7 ar  
    15     6    17 1   
    16     7     8 ar  
    17     7    18 1   
    18     8     9 ar  
    19     9    10 ar  
    20     9    19 1   
    21    10    20 1   
@<TRIPOS>SUBSTRUCTURE
     1 01R         1 TEMP              0 ****  ****    0 ROOT
