@<TRIPOS>MOLECULE
01R
   21    21     1     0     0
SMALL
No Charge or Current Charge


@<TRIPOS>ATOM
      1 N19          4.4210     0.4160    -0.0600 n8         1 01R      -0.994200
      2 C20          3.2250    -0.4670    -0.0170 c3         1 01R       0.133800
      3 C30          1.8720     0.3080    -0.0420 c3         1 01R       0.228800
      4 N27          0.7090    -0.6060     0.0120 nu         1 01R      -0.981200
      5 C21         -0.6370    -0.2590     0.0000 ca         1 01R       0.378000
      6 C22         -1.6020    -1.2640     0.0060 ca         1 01R      -0.258500
      7 C23         -2.9540    -0.9050    -0.0060 ca         1 01R       0.372900
      8 N24         -3.3700     0.3800    -0.0220 nb         1 01R      -0.706000
      9 C25         -2.4280     1.3480    -0.0270 ca         1 01R       0.372900
     10 C26         -1.0560     1.0730    -0.0160 ca         1 01R      -0.258500
     11 H19          4.4590     0.9750     0.8020 hn         1 01R       0.399000
     12 H201         3.2670    -1.1430    -0.8820 h1         1 01R       0.033200
     13 H202         3.2780    -1.0760     0.8960 h1         1 01R       0.033200
     14 H301         1.8420     0.9960     0.8150 h1         1 01R       0.050200
     15 H302         1.8270     0.9130    -0.9580 h1         1 01R       0.050200
     16 H27          0.9050    -1.6090     0.0200 hn         1 01R       0.489000
     17 H22         -1.3210    -2.3120     0.0190 ha         1 01R       0.118000
     18 H23         -3.7320    -1.6670    -0.0020 h4         1 01R       0.011100
     19 H25         -2.7880     2.3760    -0.0400 h4         1 01R       0.011100
     20 H26         -0.3460     1.8920    -0.0210 ha         1 01R       0.118000
     21 H2           5.2680    -0.1650    -0.0020 hn         1 01R       0.399000
@<TRIPOS>BOND
     1     1     2 1   
     2     1    11 1   
     3     1    21 1   
     4     2     3 1   
     5     2    12 1   
     6     2    13 1   
     7     3     4 1   
     8     3    14 1   
     9     3    15 1   
    10     4     5 1   
    11     4    16 1   
    12     5     6 ar  
    13     5    10 ar  
    14     6     7 ar  
    15     6    17 1   
    16     7     8 ar  
    17     7    18 1   
    18     8     9 ar  
    19     9    10 ar  
    20     9    19 1   
    21    10    20 1   
@<TRIPOS>SUBSTRUCTURE
     1 01R         1 TEMP              0 ****  ****    0 ROOT
