@<TRIPOS>MOLECULE
01S
   43    42     1     0     0
SMALL
bcc


@<TRIPOS>ATOM
      1 N            3.2740    -1.7480     1.2700 ns         1 01S      -0.455400
      2 OH           3.9500    -2.9260     1.3600 oh         1 01S      -0.385100
      3 C1           3.1360    -1.1470     0.0750 c          1 01S       0.667100
      4 O1           3.4230    -1.6660    -0.9860 o          1 01S      -0.543100
      5 CA           2.5470     0.2540     0.1700 c3         1 01S      -0.224700
      6 CB           3.5540     1.2760    -0.3570 c3         1 01S      -0.055400
      7 CG           3.1710     2.7330    -0.0910 c3         1 01S      -0.063700
      8 CD1          3.1590     3.0590     1.3990 c3         1 01S      -0.088600
      9 CD2          4.1310     3.6570    -0.8340 c3         1 01S      -0.088600
     10 C            1.2550     0.2390    -0.6430 c          1 01S       0.681100
     11 O            1.2150     0.5690    -1.8170 o          1 01S      -0.577100
     12 N1           0.1860    -0.2070     0.0340 ns         1 01S      -0.571900
     13 CA1         -1.1000    -0.4170    -0.5820 c3         1 01S       0.039700
     14 C2          -2.1690    -0.3430     0.5030 c          1 01S       0.660100
     15 O2          -1.9070    -0.5180     1.6850 o          1 01S      -0.623100
     16 CB1         -1.1790    -1.7670    -1.3000 c3         1 01S      -0.111100
     17 N2          -3.4050    -0.1200     0.0510 ns         1 01S      -0.557900
     18 CA2         -4.5550    -0.1060     0.9110 c3         1 01S       0.015000
     19 C3          -5.8130     0.0680     0.0740 c          1 01S       0.661100
     20 O3          -5.7660     0.1760    -1.1420 o          1 01S      -0.607100
     21 N3          -6.9450     0.0890     0.7820 nt         1 01S      -0.669000
     22 HN           3.1950    -1.2400     2.1400 hn         1 01S       0.333500
     23 HOH          3.2770    -3.6180     1.4070 ho         1 01S       0.408000
     24 HA           2.3070     0.4790     1.2130 hc         1 01S       0.063700
     25 HB1          4.5260     1.0820     0.1100 hc         1 01S       0.064200
     26 HB2          3.6890     1.1180    -1.4280 hc         1 01S       0.064200
     27 HG           2.1660     2.9100    -0.4890 hc         1 01S       0.057700
     28 HD11         2.9190     4.1110     1.5650 hc         1 01S       0.033367
     29 HD12         2.4210     2.4730     1.9480 hc         1 01S       0.033367
     30 HD13         4.1370     2.8650     1.8470 hc         1 01S       0.033367
     31 HD21         4.1060     3.4740    -1.9100 hc         1 01S       0.033367
     32 HD22         3.8790     4.7050    -0.6690 hc         1 01S       0.033367
     33 HD23         5.1600     3.5080    -0.4960 hc         1 01S       0.033367
     34 H            0.2770    -0.4680     1.0050 hn         1 01S       0.334500
     35 HA1         -1.2720     0.3820    -1.3070 h1         1 01S       0.087700
     36 HB11        -2.1400    -1.8920    -1.7980 hc         1 01S       0.053367
     37 HB21        -0.4000    -1.8350    -2.0570 hc         1 01S       0.053367
     38 HB3         -1.0490    -2.5890    -0.5950 hc         1 01S       0.053367
     39 H1          -3.5720     0.0390    -0.9320 hn         1 01S       0.349500
     40 HA2         -4.6300    -1.0350     1.4820 h1         1 01S       0.068200
     41 HA3         -4.4970     0.7080     1.6400 h1         1 01S       0.068200
     42 HN1         -6.9500     0.0060     1.7850 hn         1 01S       0.320500
     43 HN2         -7.8330     0.2030     0.3220 hn         1 01S       0.320500
@<TRIPOS>BOND
     1     1     2 1   
     2     1     3 1   
     3     1    22 1   
     4     2    23 1   
     5     3     4 2   
     6     3     5 1   
     7     5     6 1   
     8     5    10 1   
     9     5    24 1   
    10     6     7 1   
    11     6    25 1   
    12     6    26 1   
    13     7     8 1   
    14     7     9 1   
    15     7    27 1   
    16     8    28 1   
    17     8    29 1   
    18     8    30 1   
    19     9    31 1   
    20     9    32 1   
    21     9    33 1   
    22    10    11 2   
    23    10    12 1   
    24    12    13 1   
    25    12    34 1   
    26    13    14 1   
    27    13    16 1   
    28    13    35 1   
    29    14    15 2   
    30    14    17 1   
    31    16    36 1   
    32    16    37 1   
    33    16    38 1   
    34    17    18 1   
    35    17    39 1   
    36    18    19 1   
    37    18    40 1   
    38    18    41 1   
    39    19    20 2   
    40    19    21 1   
    41    21    42 1   
    42    21    43 1   
@<TRIPOS>SUBSTRUCTURE
     1 01S         1 TEMP              0 ****  ****    0 ROOT
