@<TRIPOS>MOLECULE
01S
   43    42     1     0     0
SMALL
No Charge or Current Charge


@<TRIPOS>ATOM
      1 N            3.8560    -2.1240     0.8910 ns         1 01S      -0.388400
      2 OH           4.8490    -3.1790     0.8850 oh         1 01S      -0.424100
      3 C1           3.6870    -1.2950    -0.2140 c          1 01S       0.600100
      4 O1           4.1990    -1.5430    -1.2980 o          1 01S      -0.543100
      5 CA           2.8240    -0.0580     0.0330 c3         1 01S      -0.224700
      6 CB           3.5890     1.2650    -0.2710 c3         1 01S      -0.055400
      7 CG           2.7780     2.5750    -0.0590 c3         1 01S      -0.063700
      8 CD1          2.2820     2.7520     1.3970 c3         1 01S      -0.088600
      9 CD2          3.5970     3.8060    -0.5090 c3         1 01S      -0.088600
     10 C            1.5370    -0.2050    -0.7730 c          1 01S       0.614100
     11 O            1.5080    -0.1860    -1.9950 o          1 01S      -0.577100
     12 N1           0.3920    -0.3330    -0.0200 ns         1 01S      -0.504900
     13 CA1         -0.9760    -0.4770    -0.5640 c3         1 01S       0.039700
     14 C2          -2.0320    -0.0770     0.5100 c          1 01S       0.593100
     15 O2          -1.7460     0.1410     1.6820 o          1 01S      -0.623100
     16 CB1         -1.2040    -1.9130    -1.0940 c3         1 01S      -0.111100
     17 N2          -3.3290     0.0250     0.0570 ns         1 01S      -0.490900
     18 CA2         -4.4890     0.3900     0.9020 c3         1 01S       0.015000
     19 C3          -5.8100     0.4080     0.0990 c          1 01S       0.594100
     20 O3          -5.8830     0.1510    -1.0930 o          1 01S      -0.607100
     21 N3          -6.9230     0.7310     0.7930 nt         1 01S      -0.602000
     22 HN           3.5500    -1.8030     1.8080 hn         1 01S       0.333500
     23 HOH          4.3510    -3.9700     1.2020 ho         1 01S       0.447000
     24 HA           2.5560    -0.0610     1.0960 hc         1 01S       0.063700
     25 HB1          4.4940     1.3010     0.3500 hc         1 01S       0.064200
     26 HB2          3.9360     1.2360    -1.3120 hc         1 01S       0.064200
     27 HG           1.8910     2.5350    -0.7040 hc         1 01S       0.057700
     28 HD11         1.7670     3.7130     1.5150 hc         1 01S       0.033367
     29 HD12         1.5730     1.9650     1.6750 hc         1 01S       0.033367
     30 HD13         3.1230     2.7270     2.1010 hc         1 01S       0.033367
     31 HD21         3.9000     3.7100    -1.5590 hc         1 01S       0.033367
     32 HD22         3.0040     4.7240    -0.4130 hc         1 01S       0.033367
     33 HD23         4.5020     3.9170     0.1010 hc         1 01S       0.033367
     34 H            0.4970    -0.2960     0.9890 hn         1 01S       0.334500
     35 HA1         -1.0950     0.2280    -1.3980 h1         1 01S       0.087700
     36 HB11        -2.2020    -2.0160    -1.5360 hc         1 01S       0.053367
     37 HB21        -0.4680    -2.1660    -1.8660 hc         1 01S       0.053367
     38 HB3         -1.1120    -2.6440    -0.2810 hc         1 01S       0.053367
     39 H1          -3.4940    -0.1660    -0.9270 hn         1 01S       0.349500
     40 HA2         -4.5910    -0.3340     1.7200 h1         1 01S       0.068200
     41 HA3         -4.3320     1.3870     1.3330 h1         1 01S       0.068200
     42 HN1         -6.8660     0.9440     1.7780 hn         1 01S       0.320500
     43 HN2         -7.8120     0.7570     0.3140 hn         1 01S       0.320500
@<TRIPOS>BOND
     1     1     2 1   
     2     1     3 1   
     3     1    22 1   
     4     2    23 1   
     5     3     4 2   
     6     3     5 1   
     7     5     6 1   
     8     5    10 1   
     9     5    24 1   
    10     6     7 1   
    11     6    25 1   
    12     6    26 1   
    13     7     8 1   
    14     7     9 1   
    15     7    27 1   
    16     8    28 1   
    17     8    29 1   
    18     8    30 1   
    19     9    31 1   
    20     9    32 1   
    21     9    33 1   
    22    10    11 2   
    23    10    12 1   
    24    12    13 1   
    25    12    34 1   
    26    13    14 1   
    27    13    16 1   
    28    13    35 1   
    29    14    15 2   
    30    14    17 1   
    31    16    36 1   
    32    16    37 1   
    33    16    38 1   
    34    17    18 1   
    35    17    39 1   
    36    18    19 1   
    37    18    40 1   
    38    18    41 1   
    39    19    20 2   
    40    19    21 1   
    41    21    42 1   
    42    21    43 1   
@<TRIPOS>SUBSTRUCTURE
     1 01S         1 TEMP              0 ****  ****    0 ROOT
