@<TRIPOS>MOLECULE
01T
   55    56     1     0     0
SMALL
bcc


@<TRIPOS>ATOM
      1 C5          -2.0100    -0.1240    -0.3290 ca         1 01T       0.386600
      2 C6          -3.3140    -0.7730    -0.7210 c3         1 01T      -0.105700
      3 C7          -4.2850    -1.1070     0.4390 c3         1 01T      -0.040000
      4 C8          -4.7890     0.1660     1.1190 c3         1 01T      -0.080100
      5 C10         -5.4840    -1.8410    -0.1680 c3         1 01T      -0.080100
      6 C15          0.2590     1.2570     0.4220 ca         1 01T      -0.076600
      7 C17          2.4050     2.4220    -0.3750 c          1 01T       0.936600
      8 C20          1.6560    -0.7930     0.1740 cp         1 01T      -0.021000
      9 C21          2.1400    -1.2720     1.3900 ca         1 01T      -0.088500
     10 C22          3.3570    -1.9320     1.4600 ca         1 01T      -0.137500
     11 C26          2.4250    -0.9880    -0.9660 ca         1 01T      -0.088500
     12 O19          3.5240     2.8680    -0.0510 o          1 01T      -0.829800
     13 O18          1.9540     2.2990    -1.5270 o          1 01T      -0.829800
     14 C16          1.4880     2.0200     0.8070 c3         1 01T      -0.193100
     15 C3          -1.0050     1.8500     0.3360 ca         1 01T       0.408600
     16 C2          -1.2460     3.3130     0.6030 c3         1 01T      -0.112700
     17 C1          -0.9990     4.1670    -0.6400 c3         1 01T      -0.091100
     18 N4          -2.0840     1.1700    -0.0360 nb         1 01T      -0.698000
     19 C9          -3.6170    -2.0060     1.4780 c3         1 01T      -0.080100
     20 C11         -0.7960    -0.8160    -0.2780 ca         1 01T      -0.184600
     21 C12         -0.6940    -2.2640    -0.6800 c3         1 01T       0.199100
     22 N13         -0.4330    -2.3710    -2.1110 n8         1 01T      -0.868800
     23 C14          0.3440    -0.1000     0.1010 cp         1 01T       0.006000
     24 C25          3.6440    -1.6480    -0.8920 ca         1 01T      -0.137500
     25 C23          4.1320    -2.1320     0.3180 ca         1 01T      -0.089300
     26 H6          -3.8320    -0.0930    -1.4040 hc         1 01T       0.039700
     27 H6A         -3.1290    -1.6900    -1.2870 hc         1 01T       0.039700
     28 H8          -5.2630     0.8370     0.3990 hc         1 01T       0.029478
     29 H8A         -5.5330    -0.0850     1.8790 hc         1 01T       0.029478
     30 H8B         -3.9880     0.7200     1.6050 hc         1 01T       0.029478
     31 H10         -5.1800    -2.7730    -0.6500 hc         1 01T       0.029478
     32 H10A        -6.2200    -2.0870     0.6010 hc         1 01T       0.029478
     33 H10B        -5.9840    -1.2250    -0.9180 hc         1 01T       0.029478
     34 H21          1.5560    -1.1310     2.2920 ha         1 01T       0.142500
     35 H22          3.7090    -2.2960     2.4180 ha         1 01T       0.115000
     36 H24          6.1540    -2.3090     1.0390 hc         1 01T       0.029367
     37 H24A         5.3340    -3.8440     0.8250 hc         1 01T       0.029367
     38 H24B         5.9090    -2.9530    -0.5810 hc         1 01T       0.029367
     39 H26          2.0630    -0.6280    -1.9190 ha         1 01T       0.142500
     40 H16          1.2200     2.9400     1.3330 hc         1 01T       0.039700
     41 H16A         2.0850     1.4470     1.5200 hc         1 01T       0.039700
     42 H2          -2.2830     3.4300     0.9200 hc         1 01T       0.037200
     43 H2A         -0.6260     3.6750     1.4250 hc         1 01T       0.037200
     44 H1          -1.1810     5.2220    -0.4300 hc         1 01T       0.040700
     45 H1A          0.0250     4.0590    -0.9980 hc         1 01T       0.040700
     46 H1B         -1.6650     3.8680    -1.4500 hc         1 01T       0.040700
     47 H9          -2.7260    -1.5390     1.9040 hc         1 01T       0.029478
     48 H9A         -4.3030    -2.2140     2.3030 hc         1 01T       0.029478
     49 H9B         -3.3170    -2.9650     1.0500 hc         1 01T       0.029478
     50 H12          0.1380    -2.7310    -0.1520 h1         1 01T       0.029200
     51 H12A        -1.5920    -2.8020    -0.3600 h1         1 01T       0.029200
     52 HN13        -0.3530    -3.3500    -2.3590 hn         1 01T       0.326300
     53 HN1A        -1.2330    -2.0230    -2.6260 hn         1 01T       0.326300
     54 H25          4.2250    -1.7900    -1.7960 ha         1 01T       0.115000
     55 C24          5.4500    -2.8460     0.4010 c3         1 01T      -0.035800
@<TRIPOS>BOND
     1     1     2 1   
     2     1    18 ar  
     3     1    20 ar  
     4     2     3 1   
     5     2    26 1   
     6     2    27 1   
     7     3     4 1   
     8     3     5 1   
     9     3    19 1   
    10     4    28 1   
    11     4    29 1   
    12     4    30 1   
    13     5    31 1   
    14     5    32 1   
    15     5    33 1   
    16     6    14 1   
    17     6    15 ar  
    18     6    23 ar  
    19     7    12 1   
    20     7    13 1   
    21     7    14 1   
    22     8     9 ar  
    23     8    11 ar  
    24     8    23 1   
    25     9    10 ar  
    26     9    34 1   
    27    10    25 ar  
    28    10    35 1   
    29    11    24 ar  
    30    11    39 1   
    31    14    40 1   
    32    14    41 1   
    33    15    16 1   
    34    15    18 ar  
    35    16    17 1   
    36    16    42 1   
    37    16    43 1   
    38    17    44 1   
    39    17    45 1   
    40    17    46 1   
    41    19    47 1   
    42    19    48 1   
    43    19    49 1   
    44    20    21 1   
    45    20    23 ar  
    46    21    22 1   
    47    21    50 1   
    48    21    51 1   
    49    22    52 1   
    50    22    53 1   
    51    24    25 ar  
    52    24    54 1   
    53    25    55 1   
    54    36    55 1   
    55    37    55 1   
    56    38    55 1   
@<TRIPOS>SUBSTRUCTURE
     1 01T         1 TEMP              0 ****  ****    0 ROOT
