@<TRIPOS>MOLECULE
01T
   55    56     1     0     0
SMALL
No Charge or Current Charge


@<TRIPOS>ATOM
      1 C5          -1.9300    -0.0810    -0.3730 ca         1 01T       0.321300
      2 C6          -3.2780    -0.7150    -0.7670 c3         1 01T      -0.105700
      3 C7          -4.2490    -1.0860     0.4090 c3         1 01T      -0.040000
      4 C8          -4.7030     0.1810     1.1850 c3         1 01T      -0.080100
      5 C10         -5.5090    -1.7670    -0.1910 c3         1 01T      -0.080100
      6 C15          0.3880     1.3030     0.3530 ca         1 01T      -0.011300
      7 C17          2.2430     2.8420    -0.4280 c          1 01T       0.726000
      8 C20          1.7630    -0.8410     0.2150 cp         1 01T      -0.021000
      9 C21          2.1760    -1.3450     1.4710 ca         1 01T      -0.070500
     10 C22          3.3820    -2.0550     1.6020 ca         1 01T      -0.119500
     11 C26          2.5890    -1.0770    -0.9070 ca         1 01T      -0.070500
     12 O19          2.9910     2.2250    -1.1710 o          1 01T      -0.724500
     13 O18          1.8710     3.9830    -0.6510 o          1 01T      -0.724500
     14 C16          1.6450     2.1000     0.7790 c3         1 01T      -0.193100
     15 C3          -0.8860     1.9280     0.2120 ca         1 01T       0.343300
     16 C2          -1.1730     3.4150     0.4710 c3         1 01T      -0.112700
     17 C1          -1.5850     4.1900    -0.8010 c3         1 01T      -0.091100
     18 N4          -1.9970     1.2440    -0.1370 nb         1 01T      -0.698000
     19 C9          -3.5820    -2.0710     1.4060 c3         1 01T      -0.080100
     20 C11         -0.7070    -0.7950    -0.3060 ca         1 01T      -0.119300
     21 C12         -0.6460    -2.2890    -0.6440 c3         1 01T       0.199100
     22 N13         -0.4000    -2.5150    -2.0800 n8         1 01T      -0.979200
     23 C14          0.4730    -0.0980     0.0820 cp         1 01T       0.006000
     24 C25          3.7960    -1.7870    -0.7770 ca         1 01T      -0.119500
     25 C23          4.2000    -2.2770     0.4790 ca         1 01T      -0.089300
     26 H6          -3.8060    -0.0230    -1.4360 hc         1 01T       0.039700
     27 H6A         -3.1170    -1.6030    -1.3870 hc         1 01T       0.039700
     28 H8          -5.1160     0.9340     0.5020 hc         1 01T       0.029478
     29 H8A         -5.4790    -0.0680     1.9190 hc         1 01T       0.029478
     30 H8B         -3.8700     0.6340     1.7330 hc         1 01T       0.029478
     31 H10         -5.2410    -2.6770    -0.7410 hc         1 01T       0.029478
     32 H10A        -6.2180    -2.0480     0.5970 hc         1 01T       0.029478
     33 H10B        -6.0260    -1.0930    -0.8850 hc         1 01T       0.029478
     34 H21          1.5510    -1.1810     2.3460 ha         1 01T       0.124500
     35 H22          3.6790    -2.4320     2.5780 ha         1 01T       0.097000
     36 H24          5.9460    -2.9070     1.6120 hc         1 01T       0.029367
     37 H24A         5.3380    -4.1220     0.4740 hc         1 01T       0.029367
     38 H24B         6.2440    -2.7200    -0.1200 hc         1 01T       0.029367
     39 H26          2.2860    -0.7040    -1.8820 ha         1 01T       0.124500
     40 H16          1.3590     2.8080     1.5630 hc         1 01T       0.039700
     41 H16A         2.3890     1.3940     1.1550 hc         1 01T       0.039700
     42 H2          -1.9860     3.5030     1.2030 hc         1 01T       0.037200
     43 H2A         -0.3290     3.9370     0.9260 hc         1 01T       0.037200
     44 H1          -1.7380     5.2510    -0.5700 hc         1 01T       0.040700
     45 H1A         -0.8090     4.1140    -1.5710 hc         1 01T       0.040700
     46 H1B         -2.5200     3.7950    -1.2160 hc         1 01T       0.040700
     47 H9          -2.6580    -1.6540     1.8220 hc         1 01T       0.029478
     48 H9A         -4.2550    -2.2910     2.2440 hc         1 01T       0.029478
     49 H9B         -3.3440    -3.0240     0.9200 hc         1 01T       0.029478
     50 H12          0.1530    -2.7800    -0.0730 h1         1 01T       0.029200
     51 H12A        -1.5780    -2.7930    -0.3690 h1         1 01T       0.029200
     52 HN13        -0.4190    -3.5240    -2.2660 hn         1 01T       0.381500
     53 HN1A        -1.1930    -2.1480    -2.6160 hn         1 01T       0.381500
     54 H25          4.4150    -1.9560    -1.6550 ha         1 01T       0.097000
     55 C24          5.5030    -3.0480     0.6190 c3         1 01T      -0.035800
@<TRIPOS>BOND
     1     1     2 1   
     2     1    18 ar  
     3     1    20 ar  
     4     2     3 1   
     5     2    26 1   
     6     2    27 1   
     7     3     4 1   
     8     3     5 1   
     9     3    19 1   
    10     4    28 1   
    11     4    29 1   
    12     4    30 1   
    13     5    31 1   
    14     5    32 1   
    15     5    33 1   
    16     6    14 1   
    17     6    15 ar  
    18     6    23 ar  
    19     7    12 1   
    20     7    13 1   
    21     7    14 1   
    22     8     9 ar  
    23     8    11 ar  
    24     8    23 1   
    25     9    10 ar  
    26     9    34 1   
    27    10    25 ar  
    28    10    35 1   
    29    11    24 ar  
    30    11    39 1   
    31    14    40 1   
    32    14    41 1   
    33    15    16 1   
    34    15    18 ar  
    35    16    17 1   
    36    16    42 1   
    37    16    43 1   
    38    17    44 1   
    39    17    45 1   
    40    17    46 1   
    41    19    47 1   
    42    19    48 1   
    43    19    49 1   
    44    20    21 1   
    45    20    23 ar  
    46    21    22 1   
    47    21    50 1   
    48    21    51 1   
    49    22    52 1   
    50    22    53 1   
    51    24    25 ar  
    52    24    54 1   
    53    25    55 1   
    54    36    55 1   
    55    37    55 1   
    56    38    55 1   
@<TRIPOS>SUBSTRUCTURE
     1 01T         1 TEMP              0 ****  ****    0 ROOT
