@<TRIPOS>MOLECULE
01U
   18    19     1     0     0
SMALL
No Charge or Current Charge


@<TRIPOS>ATOM
      1 N25          3.7650     0.6890    -0.0040 nv         1 01U      -1.063000
      2 C26          2.4950     0.1780    -0.0220 ca         1 01U       0.280000
      3 C31          1.3850     1.0410    -0.0510 ca         1 01U      -0.138000
      4 C30          0.0950     0.4850    -0.0680 ca         1 01U      -0.141000
      5 S34         -1.4120     1.3840    -0.1040 ss         1 01U      -0.051200
      6 C33         -2.1820    -0.2170    -0.1030 cc         1 01U       0.623100
      7 N35         -3.5150    -0.3810    -0.1180 nv         1 01U      -1.005200
      8 N32         -1.4350    -1.3100    -0.0760 nd         1 01U      -0.613100
      9 C29         -0.1110    -0.8830    -0.0570 ca         1 01U       0.095400
     10 C28          0.9930    -1.7530    -0.0280 ca         1 01U      -0.036000
     11 C27          2.2980    -1.2170    -0.0110 ca         1 01U      -0.162000
     12 H25          3.9110     1.6900     0.1160 hn         1 01U       0.443500
     13 H31          1.5190     2.1190    -0.0610 ha         1 01U       0.122000
     14 H351        -4.0840     0.4070     0.1730 hn         1 01U       0.479000
     15 H352        -3.8520    -1.3030     0.1340 hn         1 01U       0.479000
     16 H28          0.8400    -2.8290    -0.0190 ha         1 01U       0.129000
     17 H27          3.1520    -1.8880     0.0110 ha         1 01U       0.115000
     18 H2           4.5630     0.0740     0.1450 hn         1 01U       0.443500
@<TRIPOS>BOND
     1     1     2 1   
     2     1    12 1   
     3     1    18 1   
     4     2     3 ar  
     5     2    11 ar  
     6     3     4 ar  
     7     3    13 1   
     8     4     5 1   
     9     4     9 ar  
    10     5     6 1   
    11     6     7 1   
    12     6     8 2   
    13     7    14 1   
    14     7    15 1   
    15     8     9 1   
    16     9    10 ar  
    17    10    11 ar  
    18    10    16 1   
    19    11    17 1   
@<TRIPOS>SUBSTRUCTURE
     1 01U         1 TEMP              0 ****  ****    0 ROOT
