@<TRIPOS>MOLECULE
01U
   18    19     1     0     0
SMALL
abcg2


@<TRIPOS>ATOM
      1 N25          3.7910     0.6990    -0.1250 nv         1 01U      -1.063000
      2 C26          2.5050     0.1890    -0.0610 ca         1 01U       0.280000
      3 C31          1.3970     1.0380    -0.0760 ca         1 01U      -0.138000
      4 C30          0.1310     0.4760    -0.0760 ca         1 01U      -0.141000
      5 S34         -1.4070     1.2910    -0.0940 ss         1 01U      -0.051200
      6 C33         -2.1970    -0.2890    -0.0640 cc         1 01U       0.623100
      7 N35         -3.5460    -0.3500    -0.1190 nv         1 01U      -1.005200
      8 N32         -1.4090    -1.3070    -0.0460 nd         1 01U      -0.613100
      9 C29         -0.0890    -0.9090    -0.0540 ca         1 01U       0.095400
     10 C28          1.0240    -1.7450    -0.0330 ca         1 01U      -0.036000
     11 C27          2.2960    -1.2010    -0.0380 ca         1 01U      -0.162000
     12 H25          3.8910     1.6500     0.1930 hn         1 01U       0.443500
     13 H31          1.5290     2.1130    -0.0900 ha         1 01U       0.122000
     14 H351        -4.0800     0.4460     0.1860 hn         1 01U       0.479000
     15 H352        -3.9570    -1.2400     0.1170 hn         1 01U       0.479000
     16 H28          0.8930    -2.8190    -0.0130 ha         1 01U       0.129000
     17 H27          3.1530    -1.8630    -0.0240 ha         1 01U       0.115000
     18 H2           4.5020     0.1080     0.2750 hn         1 01U       0.443500
@<TRIPOS>BOND
     1     1     2 1   
     2     1    12 1   
     3     1    18 1   
     4     2     3 ar  
     5     2    11 ar  
     6     3     4 ar  
     7     3    13 1   
     8     4     5 1   
     9     4     9 ar  
    10     5     6 1   
    11     6     7 1   
    12     6     8 2   
    13     7    14 1   
    14     7    15 1   
    15     8     9 1   
    16     9    10 ar  
    17    10    11 ar  
    18    10    16 1   
    19    11    17 1   
@<TRIPOS>SUBSTRUCTURE
     1 01U         1 TEMP              0 ****  ****    0 ROOT
