@<TRIPOS>MOLECULE
01V
   17    17     1     0     0
SMALL
bcc


@<TRIPOS>ATOM
      1 N           -2.1650    -2.1150    -0.7630 n8         1 01V      -0.877800
      2 CA          -1.5160    -1.7650     0.4900 c3         1 01V       0.197100
      3 CB          -0.5480    -0.6350     0.2720 ca         1 01V      -0.064300
      4 CG          -0.9620     0.6760     0.0450 ca         1 01V       0.052400
      5 CD          -0.0530     1.6970    -0.1850 ca         1 01V      -0.119000
      6 CE           1.3060     1.4230    -0.2070 ca         1 01V      -0.111000
      7 CDB          1.7290     0.1230     0.0110 ca         1 01V       0.024400
      8 CGB          0.8180    -0.8940     0.2490 ca         1 01V      -0.116000
      9 CL1         -2.6470     1.0720     0.0740 cl         1 01V      -0.093400
     10 CL2          3.4220    -0.2410    -0.0120 cl         1 01V      -0.106400
     11 HN          -1.5080    -2.6060    -1.3570 hn         1 01V       0.341800
     12 HA11        -2.2860    -1.4560     1.1990 h1         1 01V       0.041200
     13 HA12        -0.9770    -2.5950     0.9620 h1         1 01V       0.041200
     14 HD          -0.3980     2.7080    -0.3500 ha         1 01V       0.151000
     15 HE           2.0160     2.2170    -0.3880 ha         1 01V       0.151000
     16 HG           1.1660    -1.9050     0.4220 ha         1 01V       0.146000
     17 H2          -2.9160    -2.7680    -0.5790 hn         1 01V       0.341800
@<TRIPOS>BOND
     1     1     2 1   
     2     1    11 1   
     3     1    17 1   
     4     2     3 1   
     5     2    12 1   
     6     2    13 1   
     7     3     4 ar  
     8     3     8 ar  
     9     4     5 ar  
    10     4     9 1   
    11     5     6 ar  
    12     5    14 1   
    13     6     7 ar  
    14     6    15 1   
    15     7     8 ar  
    16     7    10 1   
    17     8    16 1   
@<TRIPOS>SUBSTRUCTURE
     1 01V         1 TEMP              0 ****  ****    0 ROOT
