@<TRIPOS>MOLECULE
01V
   17    17     1     0     0
SMALL
No Charge or Current Charge


@<TRIPOS>ATOM
      1 N           -2.0780    -2.3010    -0.7820 n8         1 01V      -0.988200
      2 CA          -1.6170    -1.6970     0.4850 c3         1 01V       0.197100
      3 CB          -0.6020    -0.5830     0.2430 ca         1 01V      -0.064300
      4 CG          -0.9950     0.7710     0.1040 ca         1 01V       0.144000
      5 CD          -0.0290     1.7690    -0.1140 ca         1 01V      -0.101000
      6 CE           1.3340     1.4310    -0.1940 ca         1 01V      -0.093000
      7 CDB          1.7290     0.0920    -0.0570 ca         1 01V       0.116000
      8 CGB          0.7690    -0.9090     0.1610 ca         1 01V      -0.098000
      9 Cl1         -2.6900     1.2570     0.1950 cl         1 01V      -0.185000
     10 Cl2          3.4320    -0.3340    -0.1570 cl         1 01V      -0.198000
     11 HN          -1.2740    -2.7320    -1.2550 hn         1 01V       0.397000
     12 HA11        -2.4860    -1.3170     1.0390 h1         1 01V       0.041200
     13 HA12        -1.1550    -2.4820     1.0990 h1         1 01V       0.041200
     14 HD          -0.3370     2.8060    -0.2200 ha         1 01V       0.133000
     15 HE           2.0800     2.2040    -0.3630 ha         1 01V       0.133000
     16 HG           1.0910    -1.9420     0.2660 ha         1 01V       0.128000
     17 H2          -2.6900    -3.0980    -0.5680 hn         1 01V       0.397000
@<TRIPOS>BOND
     1     1     2 1   
     2     1    11 1   
     3     1    17 1   
     4     2     3 1   
     5     2    12 1   
     6     2    13 1   
     7     3     4 ar  
     8     3     8 ar  
     9     4     5 ar  
    10     4     9 1   
    11     5     6 ar  
    12     5    14 1   
    13     6     7 ar  
    14     6    15 1   
    15     7     8 ar  
    16     7    10 1   
    17     8    16 1   
@<TRIPOS>SUBSTRUCTURE
     1 01V         1 TEMP              0 ****  ****    0 ROOT
