@<TRIPOS>MOLECULE
01W
   32    32     1     0     0
SMALL
bcc


@<TRIPOS>ATOM
      1 O52        -13.9090    38.8700   -21.2750 o          1 01W      -0.210500
      2 N5         -13.5580    38.9410   -20.1180 no         1 01W       0.328200
      3 O5         -13.9640    39.7780   -19.3420 o          1 01W      -0.210500
      4 C5         -12.6070    37.9790   -19.6290 ca         1 01W      -0.267200
      5 C6         -12.1800    38.0270   -18.2970 ca         1 01W       0.027000
      6 C7         -11.2890    37.1050   -17.8340 ca         1 01W      -0.252000
      7 C4         -12.1240    37.0110   -20.4750 ca         1 01W       0.052000
      8 C3         -11.2120    36.0720   -20.0140 ca         1 01W      -0.313200
      9 N3         -10.7610    35.1010   -20.9750 no         1 01W       0.332200
     10 O32         -9.9390    34.2730   -20.6260 o          1 01W      -0.225000
     11 O3         -11.2090    35.1380   -22.0960 o          1 01W      -0.225000
     12 C2         -10.7560    36.0750   -18.6580 ca         1 01W       0.310600
     13 N13         -9.8890    35.2000   -18.1550 nu         1 01W      -0.735600
     14 C1          -9.4690    35.1360   -16.7710 c3         1 01W       0.225800
     15 CB         -10.5070    34.4330   -15.8960 c3         1 01W      -0.107400
     16 CA         -10.0430    34.2660   -14.4520 c3         1 01W      -0.035500
     17 N          -11.0310    33.4250   -13.7170 nz         1 01W      -0.831600
     18 C           -9.9650    35.6300   -13.7110 c          1 01W       0.924600
     19 O          -10.9600    35.9100   -13.0160 o          1 01W      -0.757300
     20 OXT         -8.9480    36.3000   -13.9250 o          1 01W      -0.757300
     21 H6         -12.5460    38.7870   -17.6220 ha         1 01W       0.178000
     22 H7         -10.9820    37.1720   -16.8010 ha         1 01W       0.170000
     23 H4         -12.4470    36.9740   -21.5050 ha         1 01W       0.200000
     24 HN13        -9.5540    34.4770   -18.7710 hn         1 01W       0.479800
     25 H11         -8.5360    34.5750   -16.7560 h1         1 01W       0.089700
     26 H21         -9.2370    36.1310   -16.3990 h1         1 01W       0.089700
     27 H1B        -11.4540    34.9800   -15.9130 hc         1 01W       0.049700
     28 H2B        -10.7000    33.4480   -16.3310 hc         1 01W       0.049700
     29 HA          -9.0850    33.7470   -14.4220 hx         1 01W       0.089700
     30 H1N        -10.6010    32.9350   -12.9330 hn         1 01W       0.444133
     31 H2N        -11.7270    34.0710   -13.3200 hn         1 01W       0.444133
     32 H3N        -11.4950    32.7230   -14.2930 hn         1 01W       0.444133
@<TRIPOS>BOND
     1     1     2 1   
     2     2     3 1   
     3     2     4 1   
     4     4     5 ar  
     5     4     7 ar  
     6     5     6 ar  
     7     5    21 1   
     8     6    12 ar  
     9     6    22 1   
    10     7     8 ar  
    11     7    23 1   
    12     8     9 1   
    13     8    12 ar  
    14     9    10 1   
    15     9    11 1   
    16    12    13 1   
    17    13    14 1   
    18    13    24 1   
    19    14    15 1   
    20    14    25 1   
    21    14    26 1   
    22    15    16 1   
    23    15    27 1   
    24    15    28 1   
    25    16    17 1   
    26    16    18 1   
    27    16    29 1   
    28    17    30 1   
    29    17    31 1   
    30    17    32 1   
    31    18    19 1   
    32    18    20 1   
@<TRIPOS>SUBSTRUCTURE
     1 01W         1 TEMP              0 ****  ****    0 ROOT
