@<TRIPOS>MOLECULE
01W
   32    32     1     0     0
SMALL
No Charge or Current Charge


@<TRIPOS>ATOM
      1 O52        -14.3340    38.5630   -21.1950 o          1 01W      -0.400500
      2 N5         -13.8340    38.8280   -20.0950 no         1 01W       0.708200
      3 O5         -14.1980    39.7740   -19.3870 o          1 01W      -0.400500
      4 C5         -12.7290    37.9540   -19.5930 ca         1 01W      -0.267200
      5 C6         -12.1270    38.2160   -18.3480 ca         1 01W       0.045000
      6 C7         -11.0920    37.3910   -17.8860 ca         1 01W      -0.234000
      7 C4         -12.2740    36.8630   -20.3640 ca         1 01W       0.070000
      8 C3         -11.2320    36.0310   -19.8930 ca         1 01W      -0.313200
      9 N3         -10.7840    34.9100   -20.7670 no         1 01W       0.712200
     10 O32        -10.3020    33.8980   -20.2440 o          1 01W      -0.415000
     11 O3         -10.9680    35.0220   -21.9850 o          1 01W      -0.415000
     12 C2         -10.6430    36.2950   -18.6380 ca         1 01W       0.449000
     13 N13         -9.6020    35.5130   -18.1360 nu         1 01W      -0.929200
     14 C1          -9.2650    35.2840   -16.7170 c3         1 01W       0.225800
     15 CB         -10.4180    34.5430   -16.0010 c3         1 01W      -0.107400
     16 CA         -10.1090    34.1890   -14.5280 c3         1 01W      -0.063700
     17 N          -11.2670    33.3730   -13.9390 nz         1 01W      -0.969000
     18 C           -9.7560    35.4630   -13.6800 c          1 01W       0.714000
     19 O          -10.6820    36.0980   -13.1950 o          1 01W      -0.652000
     20 OXT         -8.5780    35.6720   -13.4350 o          1 01W      -0.652000
     21 H6         -12.4490    39.0550   -17.7310 ha         1 01W       0.160000
     22 H7         -10.6370    37.6210   -16.9300 ha         1 01W       0.152000
     23 H4         -12.7360    36.6580   -21.3310 ha         1 01W       0.182000
     24 HN13        -9.3650    34.7380   -18.7620 hn         1 01W       0.535000
     25 H11         -8.3540    34.6710   -16.6430 h1         1 01W       0.089700
     26 H21         -9.0500    36.2350   -16.2090 h1         1 01W       0.089700
     27 H1B        -11.3250    35.1580   -16.0370 hc         1 01W       0.049700
     28 H2B        -10.6360    33.6180   -16.5490 hc         1 01W       0.049700
     29 HA          -9.2110    33.5630   -14.5060 hx         1 01W       0.089700
     30 H1N        -11.0790    33.0360   -12.9800 hn         1 01W       0.499333
     31 H2N        -12.1360    33.9240   -13.8570 hn         1 01W       0.499333
     32 H3N        -11.5110    32.5330   -14.4860 hn         1 01W       0.499333
@<TRIPOS>BOND
     1     1     2 1   
     2     2     3 1   
     3     2     4 1   
     4     4     5 ar  
     5     4     7 ar  
     6     5     6 ar  
     7     5    21 1   
     8     6    12 ar  
     9     6    22 1   
    10     7     8 ar  
    11     7    23 1   
    12     8     9 1   
    13     8    12 ar  
    14     9    10 1   
    15     9    11 1   
    16    12    13 1   
    17    13    14 1   
    18    13    24 1   
    19    14    15 1   
    20    14    25 1   
    21    14    26 1   
    22    15    16 1   
    23    15    27 1   
    24    15    28 1   
    25    16    17 1   
    26    16    18 1   
    27    16    29 1   
    28    17    30 1   
    29    17    31 1   
    30    17    32 1   
    31    18    19 1   
    32    18    20 1   
@<TRIPOS>SUBSTRUCTURE
     1 01W         1 TEMP              0 ****  ****    0 ROOT
