@<TRIPOS>MOLECULE
01X
   23    23     1     0     0
SMALL
bcc


@<TRIPOS>ATOM
      1 N           -0.1820    -2.9500    -0.8560 n8         1 01X      -0.856800
      2 CA           0.1410    -2.3560     0.4350 c3         1 01X       0.207100
      3 CB           0.7070    -0.9750     0.2470 ca         1 01X      -0.128300
      4 CG          -0.1310     0.1300     0.0130 ca         1 01X       0.202100
      5 CD           0.4310     1.3880    -0.1960 ca         1 01X      -0.237000
      6 CE           1.8100     1.5600    -0.1820 ca         1 01X      -0.080000
      7 CDB          2.6270     0.4710     0.0460 ca         1 01X      -0.042600
      8 CGB          2.0790    -0.7860     0.2600 ca         1 01X      -0.091000
      9 CL           4.3540     0.6690     0.0710 cl         1 01X      -0.161400
     10 OL          -1.4470    -0.1120     0.0250 os         1 01X      -0.252900
     11 CF          -2.3490     0.9720    -0.0820 c3         1 01X      -0.024600
     12 CH          -3.8010     0.4900     0.0750 c          1 01X       0.940600
     13 OH          -4.0050    -0.7170     0.2650 o          1 01X      -0.816300
     14 H            0.6780    -3.1640    -1.3460 hn         1 01X       0.323300
     15 HA'1        -0.7770    -2.3040     1.0220 h1         1 01X       0.038200
     16 HA'2         0.8560    -2.9450     1.0230 h1         1 01X       0.038200
     17 HD          -0.1890     2.2560    -0.3720 ha         1 01X       0.145000
     18 HE           2.2290     2.5430    -0.3490 ha         1 01X       0.128000
     19 HG           2.7260    -1.6360     0.4430 ha         1 01X       0.125000
     20 HF1         -2.1400     1.7260     0.6870 h1         1 01X       0.018700
     21 HF2         -2.2430     1.4710    -1.0540 h1         1 01X       0.018700
     22 H2          -0.6390    -3.8410    -0.7030 hn         1 01X       0.323300
     23 OXT         -4.6390     1.4100    -0.0070 o          1 01X      -0.816300
@<TRIPOS>BOND
     1     1     2 1   
     2     1    14 1   
     3     1    22 1   
     4     2     3 1   
     5     2    15 1   
     6     2    16 1   
     7     3     4 ar  
     8     3     8 ar  
     9     4     5 ar  
    10     4    10 1   
    11     5     6 ar  
    12     5    17 1   
    13     6     7 ar  
    14     6    18 1   
    15     7     8 ar  
    16     7     9 1   
    17     8    19 1   
    18    10    11 1   
    19    11    12 1   
    20    11    20 1   
    21    11    21 1   
    22    12    13 1   
    23    12    23 1   
@<TRIPOS>SUBSTRUCTURE
     1 01X         1 TEMP              0 ****  ****    0 ROOT
