@<TRIPOS>MOLECULE
01X
   23    23     1     0     0
SMALL
No Charge or Current Charge


@<TRIPOS>ATOM
      1 N            0.1840    -3.2020    -0.8530 n8         1 01X      -0.967200
      2 CA           0.0810    -2.3920     0.3750 c3         1 01X       0.207100
      3 CB           0.6680    -0.9980     0.1740 ca         1 01X      -0.128300
      4 CG          -0.1610     0.1430     0.0460 ca         1 01X       0.202100
      5 CD           0.4280     1.4170    -0.1330 ca         1 01X      -0.219000
      6 CE           1.8260     1.5520    -0.1800 ca         1 01X      -0.062000
      7 CDB          2.6440     0.4210    -0.0470 ca         1 01X       0.049000
      8 CGB          2.0700    -0.8470     0.1300 ca         1 01X      -0.073000
      9 Cl           4.3940     0.5920    -0.1020 cl         1 01X      -0.253000
     10 OL          -1.5340    -0.0170     0.1050 os         1 01X      -0.276100
     11 CF          -2.4550     1.0950    -0.0140 c3         1 01X      -0.001400
     12 CH          -3.9470     0.6670     0.0950 c          1 01X       0.730000
     13 OH          -4.2270    -0.5120     0.2800 o          1 01X      -0.711000
     14 H            1.1750    -3.3160    -1.0890 hn         1 01X       0.378500
     15 HA'1        -0.9740    -2.3380     0.6780 h1         1 01X       0.038200
     16 HA'2         0.6310    -2.9030     1.1790 h1         1 01X       0.038200
     17 HD          -0.1810     2.3100    -0.2350 ha         1 01X       0.127000
     18 HE           2.2750     2.5330    -0.3170 ha         1 01X       0.110000
     19 HG           2.7160    -1.7160     0.2350 ha         1 01X       0.107000
     20 HF1         -2.2630     1.8300     0.7790 h1         1 01X       0.018700
     21 HF2         -2.3220     1.5930    -0.9830 h1         1 01X       0.018700
     22 H2          -0.1360    -4.1560    -0.6490 hn         1 01X       0.378500
     23 OXT         -4.7950     1.5440    -0.0090 o          1 01X      -0.711000
@<TRIPOS>BOND
     1     1     2 1   
     2     1    14 1   
     3     1    22 1   
     4     2     3 1   
     5     2    15 1   
     6     2    16 1   
     7     3     4 ar  
     8     3     8 ar  
     9     4     5 ar  
    10     4    10 1   
    11     5     6 ar  
    12     5    17 1   
    13     6     7 ar  
    14     6    18 1   
    15     7     8 ar  
    16     7     9 1   
    17     8    19 1   
    18    10    11 1   
    19    11    12 1   
    20    11    20 1   
    21    11    21 1   
    22    12    13 1   
    23    12    23 1   
@<TRIPOS>SUBSTRUCTURE
     1 01X         1 TEMP              0 ****  ****    0 ROOT
