@<TRIPOS>MOLECULE
01Y
   21    21     1     0     0
SMALL
No Charge or Current Charge


@<TRIPOS>ATOM
      1 O32         -2.5530    -1.2560     0.8350 o          1 01Y      -0.725000
      2 C14         -2.5560    -0.1070     0.4060 c          1 01Y       0.724000
      3 C5          -1.2470     0.5000    -0.2050 c3         1 01Y       0.010600
      4 O21         -0.1130    -0.4080    -0.1950 os         1 01Y      -0.415000
      5 C44          1.1210     0.0670    -0.7870 c5         1 01Y       0.169300
      6 C49          2.1530    -1.1070    -0.7410 c5         1 01Y      -0.096900
      7 C48          3.1230    -0.7140     0.4050 c5         1 01Y      -0.079400
      8 C47          3.2290     0.8120     0.1830 c5         1 01Y      -0.079400
      9 C45          1.7270     1.1860     0.1250 c5         1 01Y      -0.096900
     10 H5          -1.4710     0.8010    -1.2370 h1         1 01Y      -0.000800
     11 H5A         -1.0100     1.4100     0.3600 h1         1 01Y      -0.000800
     12 H44          0.9360     0.4040    -1.8160 h1         1 01Y       0.012700
     13 H49          1.6850    -2.0840    -0.5700 hc         1 01Y       0.048700
     14 H49A         2.6890    -1.1770    -1.6950 hc         1 01Y       0.048700
     15 H48          2.7060    -0.9540     1.3910 hc         1 01Y       0.026950
     16 H48A         4.0920    -1.2190     0.3230 hc         1 01Y       0.026950
     17 H47          3.7550     1.3200     0.9990 hc         1 01Y       0.026950
     18 H47A         3.7490     1.0560    -0.7520 hc         1 01Y       0.026950
     19 H45          1.5680     2.1870    -0.2900 hc         1 01Y       0.048700
     20 H45A         1.2890     1.1780     1.1310 hc         1 01Y       0.048700
     21 OXT         -3.5520     0.6060     0.4310 o          1 01Y      -0.725000
@<TRIPOS>BOND
     1     1     2 1   
     2     2     3 1   
     3     2    21 1   
     4     3     4 1   
     5     3    10 1   
     6     3    11 1   
     7     4     5 1   
     8     5     6 1   
     9     5     9 1   
    10     5    12 1   
    11     6     7 1   
    12     6    13 1   
    13     6    14 1   
    14     7     8 1   
    15     7    15 1   
    16     7    16 1   
    17     8     9 1   
    18     8    17 1   
    19     8    18 1   
    20     9    19 1   
    21     9    20 1   
@<TRIPOS>SUBSTRUCTURE
     1 01Y         1 TEMP              0 ****  ****    0 ROOT
