@<TRIPOS>MOLECULE
01Y
   21    21     1     0     0
SMALL
bcc


@<TRIPOS>ATOM
      1 O32         -2.7730    -1.2530     0.0850 o          1 01Y      -0.830300
      2 C14         -2.6430    -0.0300    -0.0860 c          1 01Y       0.934600
      3 C5          -1.2240     0.5380    -0.2460 c3         1 01Y      -0.012600
      4 O21         -0.2410    -0.4500    -0.0750 os         1 01Y      -0.368600
      5 C44          1.0500    -0.0340    -0.4330 c5         1 01Y       0.146100
      6 C49          2.0260    -1.2160    -0.3470 c5         1 01Y      -0.096900
      7 C48          3.3950    -0.6100     0.0280 c5         1 01Y      -0.079400
      8 C47          3.1660     0.9070     0.1100 c5         1 01Y      -0.079400
      9 C45          1.6860     1.0420     0.4510 c5         1 01Y      -0.096900
     10 H5          -1.1460     0.9980    -1.2450 h1         1 01Y      -0.000800
     11 H5A         -1.0970     1.3590     0.4740 h1         1 01Y      -0.000800
     12 H44          1.0390     0.3500    -1.4660 h1         1 01Y       0.012700
     13 H49          1.6840    -1.9080     0.4260 hc         1 01Y       0.048700
     14 H49A         2.0590    -1.7780    -1.2810 hc         1 01Y       0.048700
     15 H48          3.7220    -0.9910     0.9970 hc         1 01Y       0.026950
     16 H48A         4.1760    -0.8670    -0.6880 hc         1 01Y       0.026950
     17 H47          3.8180     1.3960     0.8350 hc         1 01Y       0.026950
     18 H47A         3.3630     1.3720    -0.8600 hc         1 01Y       0.026950
     19 H45          1.2980     2.0450     0.2680 hc         1 01Y       0.048700
     20 H45A         1.5130     0.8010     1.5060 hc         1 01Y       0.048700
     21 OXT         -3.5480     0.8280    -0.1520 o          1 01Y      -0.830300
@<TRIPOS>BOND
     1     1     2 1   
     2     2     3 1   
     3     2    21 1   
     4     3     4 1   
     5     3    10 1   
     6     3    11 1   
     7     4     5 1   
     8     5     6 1   
     9     5     9 1   
    10     5    12 1   
    11     6     7 1   
    12     6    13 1   
    13     6    14 1   
    14     7     8 1   
    15     7    15 1   
    16     7    16 1   
    17     8     9 1   
    18     8    17 1   
    19     8    18 1   
    20     9    19 1   
    21     9    20 1   
@<TRIPOS>SUBSTRUCTURE
     1 01Y         1 TEMP              0 ****  ****    0 ROOT
