@<TRIPOS>MOLECULE
01Z
   24    24     1     0     0
SMALL
No Charge or Current Charge


@<TRIPOS>ATOM
      1 O32         -3.2530    -1.1070     0.4930 o          1 01Z      -0.724500
      2 C14         -3.0840    -0.0020    -0.0100 c          1 01Z       0.725000
      3 C5          -1.6320     0.4940    -0.3310 c3         1 01Z       0.010600
      4 O21         -0.5910    -0.4580     0.0180 os         1 01Z      -0.421000
      5 C44          0.7630    -0.1410    -0.3720 c6         1 01Z       0.171300
      6 C49          1.6720    -1.3650    -0.0860 c6         1 01Z      -0.090900
      7 C48          3.1480    -1.0790    -0.4590 c6         1 01Z      -0.071900
      8 C47          3.6760     0.1740     0.2780 c6         1 01Z      -0.072400
      9 C46          2.7800     1.4040    -0.0030 c6         1 01Z      -0.071900
     10 C45          1.3010     1.1220     0.3620 c6         1 01Z      -0.090900
     11 H5          -1.5880     0.7160    -1.4060 h1         1 01Z      -0.001800
     12 H5A         -1.4820     1.4370     0.2110 h1         1 01Z      -0.001800
     13 H44          0.7710     0.0490    -1.4560 h1         1 01Z       0.012700
     14 H49          1.6070    -1.6340     0.9770 hc         1 01Z       0.047950
     15 H49A         1.3110    -2.2340    -0.6530 hc         1 01Z       0.047950
     16 H48          3.7710    -1.9490    -0.2090 hc         1 01Z       0.026450
     17 H48A         3.2340    -0.9340    -1.5450 hc         1 01Z       0.026450
     18 H47          3.7110    -0.0190     1.3600 hc         1 01Z       0.026700
     19 H47A         4.7080     0.3850    -0.0350 hc         1 01Z       0.026700
     20 H46          3.1460     2.2690     0.5660 hc         1 01Z       0.026450
     21 H46A         2.8520     1.6770    -1.0650 hc         1 01Z       0.026450
     22 H45          0.7000     2.0020     0.0990 hc         1 01Z       0.047950
     23 H45A         1.2070     0.9880     1.4480 hc         1 01Z       0.047950
     24 OXT         -4.0120     0.7510    -0.2800 o          1 01Z      -0.724500
@<TRIPOS>BOND
     1     1     2 1   
     2     2     3 1   
     3     2    24 1   
     4     3     4 1   
     5     3    11 1   
     6     3    12 1   
     7     4     5 1   
     8     5     6 1   
     9     5    10 1   
    10     5    13 1   
    11     6     7 1   
    12     6    14 1   
    13     6    15 1   
    14     7     8 1   
    15     7    16 1   
    16     7    17 1   
    17     8     9 1   
    18     8    18 1   
    19     8    19 1   
    20     9    10 1   
    21     9    20 1   
    22     9    21 1   
    23    10    22 1   
    24    10    23 1   
@<TRIPOS>SUBSTRUCTURE
     1 01Z         1 TEMP              0 ****  ****    0 ROOT
