@<TRIPOS>MOLECULE
01Z
   24    24     1     0     0
SMALL
bcc


@<TRIPOS>ATOM
      1 O32         -3.1030    -1.0740     0.6200 o          1 01Z      -0.829800
      2 C14         -2.9720    -0.0200    -0.0220 c          1 01Z       0.935600
      3 C5          -1.5550     0.4430    -0.3920 c3         1 01Z      -0.012600
      4 O21         -0.5690    -0.4280     0.1020 os         1 01Z      -0.374600
      5 C44          0.7440    -0.1020    -0.2980 c6         1 01Z       0.148100
      6 C49          1.6230    -1.3240    -0.0690 c6         1 01Z      -0.090900
      7 C48          3.0660    -1.0500    -0.4830 c6         1 01Z      -0.071900
      8 C47          3.6350     0.1690     0.2350 c6         1 01Z      -0.072400
      9 C46          2.7470     1.3910     0.0260 c6         1 01Z      -0.071900
     10 C45          1.3060     1.1100     0.4440 c6         1 01Z      -0.090900
     11 H5          -1.4890     0.5170    -1.4890 h1         1 01Z      -0.001800
     12 H5A         -1.4210     1.4660    -0.0160 h1         1 01Z      -0.001800
     13 H44          0.7540     0.1260    -1.3790 h1         1 01Z       0.012700
     14 H49          1.5920    -1.5950     0.9920 hc         1 01Z       0.047950
     15 H49A         1.2250    -2.1750    -0.6270 hc         1 01Z       0.047950
     16 H48          3.6830    -1.9290    -0.2860 hc         1 01Z       0.026450
     17 H48A         3.1080    -0.8810    -1.5650 hc         1 01Z       0.026450
     18 H47          3.7090    -0.0430     1.3070 hc         1 01Z       0.026700
     19 H47A         4.6500     0.3730    -0.1130 hc         1 01Z       0.026700
     20 H46          3.1350     2.2460     0.5830 hc         1 01Z       0.026450
     21 H46A         2.7690     1.6780    -1.0310 hc         1 01Z       0.026450
     22 H45          0.6900     1.9950     0.2630 hc         1 01Z       0.047950
     23 H45A         1.2660     0.9120     1.5220 hc         1 01Z       0.047950
     24 OXT         -3.8760     0.7420    -0.4230 o          1 01Z      -0.829800
@<TRIPOS>BOND
     1     1     2 1   
     2     2     3 1   
     3     2    24 1   
     4     3     4 1   
     5     3    11 1   
     6     3    12 1   
     7     4     5 1   
     8     5     6 1   
     9     5    10 1   
    10     5    13 1   
    11     6     7 1   
    12     6    14 1   
    13     6    15 1   
    14     7     8 1   
    15     7    16 1   
    16     7    17 1   
    17     8     9 1   
    18     8    18 1   
    19     8    19 1   
    20     9    10 1   
    21     9    20 1   
    22     9    21 1   
    23    10    22 1   
    24    10    23 1   
@<TRIPOS>SUBSTRUCTURE
     1 01Z         1 TEMP              0 ****  ****    0 ROOT
