@<TRIPOS>MOLECULE
020
   29    30     1     0     0
SMALL
abcg2


@<TRIPOS>ATOM
      1 FAB         -4.4890    -1.8200    -0.2560 f          1 020      -0.113000
      2 CAC         -4.0680    -0.5530    -0.2090 c3         1 020       0.370300
      3 FAG         -4.5440     0.0600    -1.3030 f          1 020      -0.113000
      4 FAA         -4.6800     0.0250     0.8360 f          1 020      -0.113000
      5 CAD         -2.5830    -0.4510    -0.1120 ca         1 020      -0.285300
      6 CAE         -1.7610    -1.5800    -0.0360 ca         1 020       0.035000
      7 CAF         -0.4010    -1.4540     0.0620 ca         1 020      -0.237000
      8 CAH         -2.0000     0.7940    -0.0840 ca         1 020       0.059000
      9 CAI         -0.6190     0.9400     0.0150 ca         1 020      -0.301200
     10 NAQ         -0.1170     2.2850     0.0380 no         1 020       0.710200
     11 OAR         -0.8980     3.2040    -0.0680 o          1 020      -0.417500
     12 OAP          1.0820     2.4620     0.1630 o          1 020      -0.417500
     13 CAJ          0.2430    -0.1920     0.0890 ca         1 020       0.444000
     14 NAK          1.5770    -0.1250     0.1730 nu         1 020      -0.934200
     15 CAL          2.4420    -1.2860     0.2670 c3         1 020       0.204500
     16 CAM          3.8680    -0.8830     0.2320 cc         1 020       0.075300
     17 CAS          4.8480    -0.9160     1.1650 cd         1 020      -0.142000
     18 OAN          4.3550    -0.3870    -0.9290 os         1 020      -0.231000
     19 CAO          5.6580    -0.1010    -0.7340 cc         1 020       0.146900
     20 CAT          6.0230    -0.4060     0.5320 cd         1 020      -0.191000
     21 HAE         -2.1800    -2.5770    -0.0490 ha         1 020       0.135000
     22 HAF          0.1940    -2.3530     0.1280 ha         1 020       0.127000
     23 HAH         -2.6120     1.6840    -0.1360 ha         1 020       0.161000
     24 HNAK         1.9900     0.7870     0.2740 hn         1 020       0.544000
     25 HAL          2.2660    -1.8340     1.1970 h1         1 020       0.065700
     26 HALA         2.2300    -1.9760    -0.5550 h1         1 020       0.065700
     27 HAS          4.7470    -1.2600     2.1820 ha         1 020       0.145000
     28 HAO          6.1940     0.3080    -1.5750 h4         1 020       0.059100
     29 HAT          7.0030    -0.2860     0.9640 ha         1 020       0.149000
@<TRIPOS>BOND
     1     1     2 1   
     2     2     3 1   
     3     2     4 1   
     4     2     5 1   
     5     5     6 ar  
     6     5     8 ar  
     7     6     7 ar  
     8     6    21 1   
     9     7    13 ar  
    10     7    22 1   
    11     8     9 ar  
    12     8    23 1   
    13     9    10 1   
    14     9    13 ar  
    15    10    11 1   
    16    10    12 1   
    17    13    14 1   
    18    14    15 1   
    19    14    24 1   
    20    15    16 1   
    21    15    25 1   
    22    15    26 1   
    23    16    17 2   
    24    16    18 1   
    25    17    20 1   
    26    17    27 1   
    27    18    19 1   
    28    19    20 2   
    29    19    28 1   
    30    20    29 1   
@<TRIPOS>SUBSTRUCTURE
     1 020         1 TEMP              0 ****  ****    0 ROOT
