@<TRIPOS>MOLECULE
020
   29    30     1     0     0
SMALL
No Charge or Current Charge


@<TRIPOS>ATOM
      1 FAB         -4.6230    -1.7790    -0.2600 f          1 020      -0.113000
      2 CAC         -4.1750    -0.5110    -0.1240 c3         1 020       0.370300
      3 FAG         -4.6260     0.1750    -1.1990 f          1 020      -0.113000
      4 FAA         -4.7860     0.0110     0.9630 f          1 020      -0.113000
      5 CAD         -2.6510    -0.4330     0.0070 ca         1 020      -0.285300
      6 CAE         -1.9070    -1.5450     0.4450 ca         1 020       0.035000
      7 CAF         -0.5140    -1.4510     0.5660 ca         1 020      -0.237000
      8 CAH         -1.9800     0.7700    -0.2880 ca         1 020       0.059000
      9 CAI         -0.5750     0.8660    -0.1610 ca         1 020      -0.301200
     10 NAQ          0.0800     2.1550    -0.5060 no         1 020       0.710200
     11 OAR         -0.4900     2.8900    -1.3220 o          1 020      -0.417500
     12 OAP          1.1140     2.4780     0.0940 o          1 020      -0.417500
     13 CAJ          0.1590    -0.2590     0.2630 ca         1 020       0.444000
     14 NAK          1.5430    -0.2310     0.3890 nu         1 020      -0.934200
     15 CAL          2.4780    -1.2990    -0.0150 c3         1 020       0.204500
     16 CAM          3.9090    -0.8380     0.1190 cc         1 020       0.075300
     17 CAS          4.9610    -1.3650     0.8180 cd         1 020      -0.142000
     18 OAN          4.3190     0.3060    -0.5360 os         1 020      -0.231000
     19 CAO          5.6510     0.4840    -0.2340 cc         1 020       0.146900
     20 CAT          6.0690    -0.5240     0.5920 cd         1 020      -0.191000
     21 HAE         -2.3990    -2.4830     0.6970 ha         1 020       0.135000
     22 HAF          0.0420    -2.3170     0.9080 ha         1 020       0.127000
     23 HAH         -2.5590     1.6360    -0.6110 ha         1 020       0.161000
     24 HNAK         1.9290     0.7180     0.3540 hn         1 020       0.544000
     25 HAL          2.3340    -2.1950     0.6050 h1         1 020       0.065700
     26 HALA         2.2990    -1.5830    -1.0610 h1         1 020       0.065700
     27 HAS          4.9380    -2.2620     1.4300 ha         1 020       0.145000
     28 HAO          6.1610     1.3390    -0.6590 h4         1 020       0.059100
     29 HAT          7.0700    -0.6440     0.9940 ha         1 020       0.149000
@<TRIPOS>BOND
     1     1     2 1   
     2     2     3 1   
     3     2     4 1   
     4     2     5 1   
     5     5     6 ar  
     6     5     8 ar  
     7     6     7 ar  
     8     6    21 1   
     9     7    13 ar  
    10     7    22 1   
    11     8     9 ar  
    12     8    23 1   
    13     9    10 1   
    14     9    13 ar  
    15    10    11 1   
    16    10    12 1   
    17    13    14 1   
    18    14    15 1   
    19    14    24 1   
    20    15    16 1   
    21    15    25 1   
    22    15    26 1   
    23    16    17 2   
    24    16    18 1   
    25    17    20 1   
    26    17    27 1   
    27    18    19 1   
    28    19    20 2   
    29    19    28 1   
    30    20    29 1   
@<TRIPOS>SUBSTRUCTURE
     1 020         1 TEMP              0 ****  ****    0 ROOT
