@<TRIPOS>MOLECULE
021
   22    22     1     0     0
SMALL
abcg2


@<TRIPOS>ATOM
      1 C14          2.7080    -0.0040     0.4280 c          1 021       0.716000
      2 O32          2.8140     1.2280     0.5940 o          1 021      -0.737000
      3 C15          1.2840    -0.5740     0.2840 c3         1 021       0.016800
      4 N16          0.3070     0.4320    -0.0730 n7         1 021      -0.860400
      5 C17         -1.0460     0.0920     0.3010 c5         1 021       0.181500
      6 C21         -1.6560    -1.0360    -0.5300 c5         1 021      -0.082400
      7 C20         -3.1680    -0.9130    -0.2910 c5         1 021      -0.078900
      8 C19         -3.4070     0.5550     0.1400 c5         1 021      -0.078900
      9 C18         -2.0340     1.2310     0.0650 c5         1 021      -0.082400
     10 H15          1.2960    -1.3790    -0.4570 h1         1 021       0.009700
     11 H15A         1.0390    -1.0620     1.2460 h1         1 021       0.009700
     12 HN16         0.5860     1.2910     0.3870 hn         1 021       0.438000
     13 H17         -1.1090    -0.2030     1.3670 h1         1 021       0.001700
     14 H21         -1.4130    -0.8550    -1.5810 hc         1 021       0.045950
     15 H21A        -1.2690    -2.0240    -0.2720 hc         1 021       0.045950
     16 H20         -3.7360    -1.1780    -1.1830 hc         1 021       0.025450
     17 H20A        -3.4910    -1.5980     0.4950 hc         1 021       0.025450
     18 H19         -4.1430     1.0580    -0.4890 hc         1 021       0.025450
     19 H19A        -3.7910     0.5930     1.1610 hc         1 021       0.025450
     20 H18         -1.9210     2.0490     0.7800 hc         1 021       0.045950
     21 H18A        -1.8580     1.6400    -0.9340 hc         1 021       0.045950
     22 OXT          3.6340    -0.8380     0.4070 o          1 021      -0.737000
@<TRIPOS>BOND
     1     1     2 1   
     2     1     3 1   
     3     1    22 1   
     4     3     4 1   
     5     3    10 1   
     6     3    11 1   
     7     4     5 1   
     8     4    12 1   
     9     5     6 1   
    10     5     9 1   
    11     5    13 1   
    12     6     7 1   
    13     6    14 1   
    14     6    15 1   
    15     7     8 1   
    16     7    16 1   
    17     7    17 1   
    18     8     9 1   
    19     8    18 1   
    20     8    19 1   
    21     9    20 1   
    22     9    21 1   
@<TRIPOS>SUBSTRUCTURE
     1 021         1 TEMP              0 ****  ****    0 ROOT
