@<TRIPOS>MOLECULE
021
   22    22     1     0     0
SMALL
No Charge or Current Charge


@<TRIPOS>ATOM
      1 C14          2.8090    -0.0710     0.2580 c          1 021       0.716000
      2 O32          3.2050     0.9250     0.8520 o          1 021      -0.737000
      3 C15          1.3210    -0.5360     0.4890 c3         1 021       0.016800
      4 N16          0.2650     0.4610     0.1060 n7         1 021      -0.860400
      5 C17         -1.1320     0.0900     0.4350 c5         1 021       0.181500
      6 C21         -1.6240    -1.0300    -0.5170 c5         1 021      -0.082400
      7 C20         -3.1730    -0.9330    -0.3700 c5         1 021      -0.078900
      8 C19         -3.4490     0.5390     0.0860 c5         1 021      -0.078900
      9 C18         -2.0650     1.2390    -0.0080 c5         1 021      -0.082400
     10 H15          1.1680    -1.4720    -0.0660 h1         1 021       0.009700
     11 H15A         1.2260    -0.7790     1.5560 h1         1 021       0.009700
     12 HN16         0.4900     1.3420     0.5880 hn         1 021       0.438000
     13 H17         -1.2570    -0.1640     1.4980 h1         1 021       0.001700
     14 H21         -1.3170    -0.8460    -1.5550 hc         1 021       0.045950
     15 H21A        -1.2440    -2.0190    -0.2370 hc         1 021       0.045950
     16 H20         -3.6770    -1.1710    -1.3140 hc         1 021       0.025450
     17 H20A        -3.5460    -1.6440     0.3760 hc         1 021       0.025450
     18 H19         -4.2010     1.0330    -0.5390 hc         1 021       0.025450
     19 H19A        -3.8260     0.5590     1.1150 hc         1 021       0.025450
     20 H18         -1.9990     2.1150     0.6470 hc         1 021       0.045950
     21 H18A        -1.8560     1.5750    -1.0320 hc         1 021       0.045950
     22 OXT          3.5080    -0.7060    -0.5220 o          1 021      -0.737000
@<TRIPOS>BOND
     1     1     2 1   
     2     1     3 1   
     3     1    22 1   
     4     3     4 1   
     5     3    10 1   
     6     3    11 1   
     7     4     5 1   
     8     4    12 1   
     9     5     6 1   
    10     5     9 1   
    11     5    13 1   
    12     6     7 1   
    13     6    14 1   
    14     6    15 1   
    15     7     8 1   
    16     7    16 1   
    17     7    17 1   
    18     8     9 1   
    19     8    18 1   
    20     8    19 1   
    21     9    20 1   
    22     9    21 1   
@<TRIPOS>SUBSTRUCTURE
     1 021         1 TEMP              0 ****  ****    0 ROOT
