@<TRIPOS>MOLECULE
022
   52    55     1     0     0
SMALL
No Charge or Current Charge


@<TRIPOS>ATOM
      1 C1          -5.8300     0.8620    -0.5000 cc         1 022       0.401400
      2 N2          -5.4070    -0.4320    -0.3010 na         1 022      -0.063300
      3 C3          -6.4800    -1.2880    -0.3500 cc         1 022      -0.224000
      4 C4          -7.5500    -0.4590    -0.5830 cd         1 022       0.219900
      5 N5          -7.1490     0.8670    -0.6760 nd         1 022      -0.681000
      6 C11         -4.0790    -0.8190    -0.0890 ca         1 022      -0.021200
      7 C13         -3.6040    -2.0500    -0.5840 ca         1 022      -0.115500
      8 C14         -2.2690    -2.4370    -0.3740 ca         1 022      -0.095500
      9 C15         -1.3800    -1.6030     0.3320 ca         1 022       0.026000
     10 C16         -1.8590    -0.3750     0.8320 ca         1 022      -0.095500
     11 C17         -3.1930     0.0140     0.6230 ca         1 022      -0.115500
     12 C24          0.0150    -2.0130     0.5320 cc         1 022      -0.168000
     13 C26          0.4060    -3.3130     0.7180 cd         1 022      -0.144000
     14 C27          1.8110    -3.3340     0.8990 cd         1 022      -0.211000
     15 C28          2.3110    -2.0550     0.8290 cc         1 022      -0.086300
     16 N29          1.1820    -1.2560     0.6270 na         1 022       0.110200
     17 C35          3.7410    -1.5840     0.9360 c3         1 022      -0.011100
     18 C37          4.3730    -1.2470    -0.4350 c3         1 022      -0.207400
     19 C38          5.8460    -0.8510    -0.2470 c          1 022       0.718000
     20 O41          6.6870    -1.7360    -0.2670 o          1 022      -0.736500
     21 O43          6.1040     0.3230    -0.0330 o          1 022      -0.736500
     22 C45          1.2450     0.1210     0.3990 ca         1 022       0.023800
     23 C47          1.0480     0.6680    -0.8920 ca         1 022      -0.057300
     24 C48          1.1020     2.0650    -1.0660 ca         1 022      -0.054000
     25 C49          1.3570     2.9330     0.0200 ca         1 022      -0.147600
     26 C50          1.5600     2.3700     1.3010 ca         1 022      -0.088000
     27 C51          1.5040     0.9800     1.4830 ca         1 022      -0.107000
     28 C58          1.4060     4.4280    -0.2170 c          1 022       0.621700
     29 O59          1.2310     4.9290    -1.3160 o          1 022      -0.616100
     30 N62          1.6540     5.2360     0.8360 nt         1 022      -0.603000
     31 C64          0.7850    -0.2210    -2.1060 c3         1 022      -0.050800
     32 H1          -5.1620     1.7150    -0.5160 h5         1 022       0.060100
     33 H3          -6.4180    -2.3600    -0.2150 h4         1 022       0.156000
     34 H4          -8.5910    -0.7410    -0.6870 h4         1 022       0.031100
     35 H13         -4.2620    -2.7090    -1.1470 ha         1 022       0.120000
     36 H14         -1.9220    -3.3840    -0.7800 ha         1 022       0.125500
     37 H16         -1.2050     0.2790     1.4000 ha         1 022       0.125500
     38 H17         -3.5340     0.9630     1.0320 ha         1 022       0.120000
     39 H26         -0.2460    -4.1820     0.7300 ha         1 022       0.119000
     40 H27          2.4080    -4.2270     1.0590 ha         1 022       0.134000
     41 H35          3.7990    -0.7050     1.5890 hc         1 022       0.060700
     42 H35A         4.3400    -2.3630     1.4230 hc         1 022       0.060700
     43 H37          4.2940    -2.1630    -1.0340 hc         1 022       0.023700
     44 H37A         3.7990    -0.4050    -0.8380 hc         1 022       0.023700
     45 H48          0.9460     2.4800    -2.0600 ha         1 022       0.136000
     46 H50          1.7590     2.9960     2.1660 ha         1 022       0.109000
     47 H51          1.6550     0.5640     2.4770 ha         1 022       0.128000
     48 HN62         1.8020     4.8440     1.7530 hn         1 022       0.313000
     49 HN6A         1.6900     6.2330     0.6920 hn         1 022       0.313000
     50 H64         -0.2560    -0.5660    -2.1230 hc         1 022       0.052367
     51 H64A         0.9710     0.3110    -3.0460 hc         1 022       0.052367
     52 H64B         1.4330    -1.1060    -2.1050 hc         1 022       0.052367
@<TRIPOS>BOND
     1     1     2 1   
     2     1     5 2   
     3     1    32 1   
     4     2     3 1   
     5     2     6 1   
     6     3     4 2   
     7     3    33 1   
     8     4     5 1   
     9     4    34 1   
    10     6     7 ar  
    11     6    11 ar  
    12     7     8 ar  
    13     7    35 1   
    14     8     9 ar  
    15     8    36 1   
    16     9    10 ar  
    17     9    12 1   
    18    10    11 ar  
    19    10    37 1   
    20    11    38 1   
    21    12    13 2   
    22    12    16 1   
    23    13    14 1   
    24    13    39 1   
    25    14    15 2   
    26    14    40 1   
    27    15    16 1   
    28    15    17 1   
    29    16    22 1   
    30    17    18 1   
    31    17    41 1   
    32    17    42 1   
    33    18    19 1   
    34    18    43 1   
    35    18    44 1   
    36    19    20 1   
    37    19    21 1   
    38    22    23 ar  
    39    22    27 ar  
    40    23    24 ar  
    41    23    31 1   
    42    24    25 ar  
    43    24    45 1   
    44    25    26 ar  
    45    25    28 1   
    46    26    27 ar  
    47    26    46 1   
    48    27    47 1   
    49    28    29 2   
    50    28    30 1   
    51    30    48 1   
    52    30    49 1   
    53    31    50 1   
    54    31    51 1   
    55    31    52 1   
@<TRIPOS>SUBSTRUCTURE
     1 022         1 TEMP              0 ****  ****    0 ROOT
