@<TRIPOS>MOLECULE
022
   52    55     1     0     0
SMALL
abcg2


@<TRIPOS>ATOM
      1 C1          -5.6950     0.9050    -0.4920 cc         1 022       0.401400
      2 N2          -5.2780    -0.3770    -0.3300 na         1 022      -0.063300
      3 C3          -6.3900    -1.1730    -0.4500 cc         1 022      -0.224000
      4 C4          -7.4270    -0.3180    -0.6740 cd         1 022       0.219900
      5 N5          -6.9810     0.9750    -0.7010 nd         1 022      -0.681000
      6 C11         -3.9540    -0.8040    -0.1000 ca         1 022      -0.021200
      7 C13         -3.4850    -1.9700    -0.6920 ca         1 022      -0.115500
      8 C14         -2.1830    -2.3790    -0.4700 ca         1 022      -0.095500
      9 C15         -1.3150    -1.6410     0.3410 ca         1 022       0.026000
     10 C16         -1.8100    -0.4770     0.9340 ca         1 022      -0.095500
     11 C17         -3.1150    -0.0630     0.7220 ca         1 022      -0.115500
     12 C24          0.0450    -2.1270     0.5510 cc         1 022      -0.168000
     13 C26          0.4720    -3.4250     0.7030 cd         1 022      -0.144000
     14 C27          1.8700    -3.3960     0.9070 cd         1 022      -0.211000
     15 C28          2.2770    -2.0840     0.8710 cc         1 022      -0.086300
     16 N29          1.1560    -1.3160     0.6620 na         1 022       0.110200
     17 C35          3.6580    -1.5290     0.9530 c3         1 022      -0.011100
     18 C37          4.2140    -1.0640    -0.3930 c3         1 022      -0.207400
     19 C38          5.6950    -0.6440    -0.3750 c          1 022       0.718000
     20 O41          6.3350    -0.8050     0.6830 o          1 022      -0.736500
     21 O43          6.1380    -0.1760    -1.4450 o          1 022      -0.736500
     22 C45          1.1780     0.0860     0.4570 ca         1 022       0.023800
     23 C47          0.9560     0.6100    -0.8190 ca         1 022      -0.057300
     24 C48          0.9640     1.9920    -0.9590 ca         1 022      -0.054000
     25 C49          1.2210     2.8400     0.1130 ca         1 022      -0.147600
     26 C50          1.4560     2.2920     1.3710 ca         1 022      -0.088000
     27 C51          1.4270     0.9190     1.5390 ca         1 022      -0.107000
     28 C58          1.2030     4.3170    -0.1360 c          1 022       0.621700
     29 O59          0.5920     4.7860    -1.0870 o          1 022      -0.616100
     30 N62          1.8850     5.0740     0.7360 nt         1 022      -0.603000
     31 C64          0.7280    -0.2760    -2.0050 c3         1 022      -0.050800
     32 H1          -5.0090     1.7380    -0.4710 h5         1 022       0.060100
     33 H3          -6.3480    -2.2430    -0.3430 h4         1 022       0.156000
     34 H4          -8.4680    -0.5670    -0.8100 h4         1 022       0.031100
     35 H13         -4.1230    -2.5460    -1.3510 ha         1 022       0.120000
     36 H14         -1.8260    -3.2750    -0.9610 ha         1 022       0.125500
     37 H16         -1.1900     0.1040     1.6020 ha         1 022       0.125500
     38 H17         -3.4780     0.8250     1.2230 ha         1 022       0.120000
     39 H26         -0.1680    -4.2940     0.7060 ha         1 022       0.119000
     40 H27          2.5210    -4.2420     1.0670 ha         1 022       0.134000
     41 H35          3.7080    -0.7090     1.6730 hc         1 022       0.060700
     42 H35A         4.2970    -2.3170     1.3530 hc         1 022       0.060700
     43 H37          4.0880    -1.8620    -1.1320 hc         1 022       0.023700
     44 H37A         3.6260    -0.2230    -0.7730 hc         1 022       0.023700
     45 H48          0.7850     2.4190    -1.9380 ha         1 022       0.136000
     46 H50          1.6290     2.9180     2.2370 ha         1 022       0.109000
     47 H51          1.5780     0.4900     2.5210 ha         1 022       0.128000
     48 HN62         2.4950     4.6840     1.4330 hn         1 022       0.313000
     49 HN6A         1.9210     6.0720     0.6060 hn         1 022       0.313000
     50 H64         -0.2920    -0.6650    -2.0220 hc         1 022       0.052367
     51 H64A         0.8840     0.2730    -2.9320 hc         1 022       0.052367
     52 H64B         1.4000    -1.1350    -2.0010 hc         1 022       0.052367
@<TRIPOS>BOND
     1     1     2 1   
     2     1     5 2   
     3     1    32 1   
     4     2     3 1   
     5     2     6 1   
     6     3     4 2   
     7     3    33 1   
     8     4     5 1   
     9     4    34 1   
    10     6     7 ar  
    11     6    11 ar  
    12     7     8 ar  
    13     7    35 1   
    14     8     9 ar  
    15     8    36 1   
    16     9    10 ar  
    17     9    12 1   
    18    10    11 ar  
    19    10    37 1   
    20    11    38 1   
    21    12    13 2   
    22    12    16 1   
    23    13    14 1   
    24    13    39 1   
    25    14    15 2   
    26    14    40 1   
    27    15    16 1   
    28    15    17 1   
    29    16    22 1   
    30    17    18 1   
    31    17    41 1   
    32    17    42 1   
    33    18    19 1   
    34    18    43 1   
    35    18    44 1   
    36    19    20 1   
    37    19    21 1   
    38    22    23 ar  
    39    22    27 ar  
    40    23    24 ar  
    41    23    31 1   
    42    24    25 ar  
    43    24    45 1   
    44    25    26 ar  
    45    25    28 1   
    46    26    27 ar  
    47    26    46 1   
    48    27    47 1   
    49    28    29 2   
    50    28    30 1   
    51    30    48 1   
    52    30    49 1   
    53    31    50 1   
    54    31    51 1   
    55    31    52 1   
@<TRIPOS>SUBSTRUCTURE
     1 022         1 TEMP              0 ****  ****    0 ROOT
