@<TRIPOS>MOLECULE
023
   61    61     1     0     0
SMALL
No Charge or Current Charge


@<TRIPOS>ATOM
      1 C25         -4.9270     3.9000    -0.2840 c3         1 023       0.092300
      2 N18         -4.6440     2.5040    -0.6250 ns         1 023      -0.498900
      3 C14         -3.7570     1.7010     0.0630 c          1 023       0.585100
      4 O19         -3.1140     2.1330     1.0130 o          1 023      -0.611100
      5 C10         -3.6030     0.2440    -0.4790 c3         1 023       0.036700
      6 C15         -4.6720    -0.7650     0.0900 c3         1 023      -0.048000
      7 C22         -6.1110    -0.3080    -0.2800 c3         1 023      -0.087100
      8 C21         -4.4510    -2.1740    -0.5270 c3         1 023      -0.087100
      9 C20         -4.5700    -0.8830     1.6370 c3         1 023      -0.087100
     10 N5          -2.2170    -0.2150    -0.2090 ns         1 023      -0.491900
     11 C2          -1.3290    -0.6690    -1.1600 c          1 023       0.601100
     12 O6          -1.6350    -0.7860    -2.3370 o          1 023      -0.607100
     13 C1           0.0850    -0.9870    -0.6350 c3         1 023      -0.157700
     14 C3           0.4610    -2.4770    -0.9230 c3         1 023       0.146700
     15 C8          -0.6230    -3.5070    -0.5260 c3         1 023      -0.112100
     16 N7           1.7790    -2.8850    -0.3850 n          1 023      -0.282300
     17 O12          2.7350    -3.3920    -1.3470 oh         1 023      -0.450100
     18 C11          2.0650    -2.9240     1.0040 c          1 023       0.579900
     19 O16          3.1440    -3.3040     1.4520 o          1 023      -0.618100
     20 C4           1.0870     0.0630    -1.2120 c3         1 023      -0.064400
     21 C9           2.3500     0.3290    -0.3570 c3         1 023      -0.074400
     22 C13          3.2130     1.4870    -0.9030 c3         1 023      -0.029100
     23 C17          4.4530     1.7260    -0.0510 ca         1 023      -0.081300
     24 C23          5.6780     1.1200    -0.3900 ca         1 023      -0.106000
     25 C26          6.8200     1.3370     0.4010 ca         1 023      -0.109000
     26 C28          6.7430     2.1620     1.5360 ca         1 023      -0.111000
     27 C27          5.5230     2.7680     1.8800 ca         1 023      -0.109000
     28 C24          4.3810     2.5500     1.0900 ca         1 023      -0.106000
     29 H251        -4.0050     4.4920    -0.3570 h1         1 023       0.042700
     30 H252        -5.6720     4.3040    -0.9810 h1         1 023       0.042700
     31 H253        -5.3190     3.9580     0.7390 h1         1 023       0.042700
     32 H18         -5.1310     2.0880    -1.4110 hn         1 023       0.320500
     33 H10         -3.7420     0.3080    -1.5660 h1         1 023       0.084700
     34 H5          -1.8580    -0.1040     0.7320 hn         1 023       0.332500
     35 H221        -6.2110    -0.1560    -1.3610 hc         1 023       0.039256
     36 H222        -6.8500    -1.0620     0.0210 hc         1 023       0.039256
     37 H223        -6.3810     0.6250     0.2270 hc         1 023       0.039256
     38 H211        -3.5030    -2.6090    -0.1930 hc         1 023       0.039256
     39 H212        -5.2480    -2.8660    -0.2280 hc         1 023       0.039256
     40 H213        -4.4390    -2.1260    -1.6230 hc         1 023       0.039256
     41 H201        -4.7610     0.0810     2.1240 hc         1 023       0.039256
     42 H202        -5.3070    -1.5990     2.0220 hc         1 023       0.039256
     43 H203        -3.5780    -1.2300     1.9480 hc         1 023       0.039256
     44 H1           0.0600    -0.8500     0.4530 hc         1 023       0.055700
     45 H3           0.5410    -2.5570    -2.0170 h1         1 023       0.103700
     46 H41C         1.3810    -0.2280    -2.2290 hc         1 023       0.057200
     47 H42C         0.5590     1.0210    -1.3140 hc         1 023       0.057200
     48 H81C        -1.5230    -3.3860    -1.1390 hc         1 023       0.050367
     49 H82C        -0.2570    -4.5280    -0.6870 hc         1 023       0.050367
     50 H83C        -0.8990    -3.4020     0.5290 hc         1 023       0.050367
     51 H12          3.3380    -2.6370    -1.5400 ho         1 023       0.473000
     52 H11          1.2230    -2.5740     1.6320 h5         1 023       0.033200
     53 H91C         2.0500     0.5640     0.6720 hc         1 023       0.043700
     54 H92C         2.9750    -0.5680    -0.3130 hc         1 023       0.043700
     55 H131         3.5030     1.2650    -1.9370 hc         1 023       0.047700
     56 H132         2.6080     2.4010    -0.9450 hc         1 023       0.047700
     57 H23          5.7460     0.4780    -1.2660 ha         1 023       0.110500
     58 H24          3.4400     3.0210     1.3640 ha         1 023       0.110500
     59 H26          7.7640     0.8670     0.1330 ha         1 023       0.111500
     60 H28          7.6270     2.3300     2.1480 ha         1 023       0.111000
     61 H27          5.4620     3.4050     2.7600 ha         1 023       0.111500
@<TRIPOS>BOND
     1     1     2 1   
     2     1    29 1   
     3     1    30 1   
     4     1    31 1   
     5     2     3 1   
     6     2    32 1   
     7     3     4 2   
     8     3     5 1   
     9     5     6 1   
    10     5    10 1   
    11     5    33 1   
    12     6     7 1   
    13     6     8 1   
    14     6     9 1   
    15     7    35 1   
    16     7    36 1   
    17     7    37 1   
    18     8    38 1   
    19     8    39 1   
    20     8    40 1   
    21     9    41 1   
    22     9    42 1   
    23     9    43 1   
    24    10    11 1   
    25    10    34 1   
    26    11    12 2   
    27    11    13 1   
    28    13    14 1   
    29    13    20 1   
    30    13    44 1   
    31    14    15 1   
    32    14    16 1   
    33    14    45 1   
    34    15    48 1   
    35    15    49 1   
    36    15    50 1   
    37    16    17 1   
    38    16    18 1   
    39    17    51 1   
    40    18    19 2   
    41    18    52 1   
    42    20    21 1   
    43    20    46 1   
    44    20    47 1   
    45    21    22 1   
    46    21    53 1   
    47    21    54 1   
    48    22    23 1   
    49    22    55 1   
    50    22    56 1   
    51    23    24 ar  
    52    23    28 ar  
    53    24    25 ar  
    54    24    57 1   
    55    25    26 ar  
    56    25    59 1   
    57    26    27 ar  
    58    26    60 1   
    59    27    28 ar  
    60    27    61 1   
    61    28    58 1   
@<TRIPOS>SUBSTRUCTURE
     1 023         1 TEMP              0 ****  ****    0 ROOT
