@<TRIPOS>MOLECULE
023
   61    61     1     0     0
SMALL
abcg2


@<TRIPOS>ATOM
      1 C25         -4.5600     3.8540    -0.4000 c3         1 023       0.092300
      2 N18         -4.3130     2.4760    -0.7550 ns         1 023      -0.498900
      3 C14         -3.6960     1.6230     0.0680 c          1 023       0.585100
      4 O19         -3.2490     1.9570     1.1580 o          1 023      -0.611100
      5 C10         -3.5700     0.1880    -0.4400 c3         1 023       0.036700
      6 C15         -4.6630    -0.7580     0.1340 c3         1 023      -0.048000
      7 C22         -6.0470    -0.2140    -0.2250 c3         1 023      -0.087100
      8 C21         -4.4970    -2.1300    -0.5230 c3         1 023      -0.087100
      9 C20         -4.5510    -0.9160     1.6500 c3         1 023      -0.087100
     10 N5          -2.2310    -0.2630    -0.1410 ns         1 023      -0.491900
     11 C2          -1.3770    -0.7470    -1.0600 c          1 023       0.601100
     12 O6          -1.6760    -0.9330    -2.2310 o          1 023      -0.607100
     13 C1           0.0310    -1.0250    -0.5560 c3         1 023      -0.157700
     14 C3           0.3960    -2.4700    -0.9480 c3         1 023       0.146700
     15 C8          -0.4940    -3.4830    -0.2370 c3         1 023      -0.112100
     16 N7           1.7960    -2.7870    -0.7230 n          1 023      -0.282300
     17 O12          2.6090    -2.5280    -1.8000 oh         1 023      -0.450100
     18 C11          2.3820    -3.1290     0.4200 c          1 023       0.579900
     19 O16          3.5980    -3.2490     0.5310 o          1 023      -0.618100
     20 C4           0.9560     0.0690    -1.1260 c3         1 023      -0.064400
     21 C9           2.1810     0.3660    -0.2670 c3         1 023      -0.074400
     22 C13          3.0520     1.4660    -0.8760 c3         1 023      -0.029100
     23 C17          4.2660     1.7430    -0.0350 ca         1 023      -0.081300
     24 C23          5.4000     0.9390    -0.1470 ca         1 023      -0.106000
     25 C26          6.5120     1.1560     0.6550 ca         1 023      -0.109000
     26 C28          6.5080     2.1850     1.5890 ca         1 023      -0.111000
     27 C27          5.3840     2.9920     1.7110 ca         1 023      -0.109000
     28 C24          4.2740     2.7710     0.9050 ca         1 023      -0.106000
     29 H251        -3.6360     4.3670    -0.1360 h1         1 023       0.042700
     30 H252        -4.9980     4.3560    -1.2570 h1         1 023       0.042700
     31 H253        -5.2510     3.9380     0.4400 h1         1 023       0.042700
     32 H18         -4.6500     2.1470    -1.6440 hn         1 023       0.320500
     33 H10         -3.6780     0.1810    -1.5270 h1         1 023       0.084700
     34 H5          -1.8840    -0.0840     0.7880 hn         1 023       0.332500
     35 H221        -6.1520    -0.0650    -1.3030 hc         1 023       0.039256
     36 H222        -6.8160    -0.9240     0.0820 hc         1 023       0.039256
     37 H223        -6.2670     0.7340     0.2670 hc         1 023       0.039256
     38 H211        -3.5480    -2.5960    -0.2570 hc         1 023       0.039256
     39 H212        -5.2900    -2.8020    -0.1890 hc         1 023       0.039256
     40 H213        -4.5500    -2.0660    -1.6110 hc         1 023       0.039256
     41 H201        -4.7330     0.0170     2.1820 hc         1 023       0.039256
     42 H202        -5.2910    -1.6410     1.9960 hc         1 023       0.039256
     43 H203        -3.5700    -1.2920     1.9470 hc         1 023       0.039256
     44 H1           0.0500    -0.9590     0.5390 hc         1 023       0.055700
     45 H3           0.2510    -2.5850    -2.0240 h1         1 023       0.103700
     46 H41C         1.2560    -0.1920    -2.1440 hc         1 023       0.057200
     47 H42C         0.3870     1.0000    -1.2100 hc         1 023       0.057200
     48 H81C        -1.5300    -3.3480    -0.5430 hc         1 023       0.050367
     49 H82C        -0.2080    -4.5030    -0.4940 hc         1 023       0.050367
     50 H83C        -0.4640    -3.3740     0.8470 hc         1 023       0.050367
     51 H12          3.5110    -2.6160    -1.4440 ho         1 023       0.473000
     52 H11          1.6750    -3.2860     1.2410 h5         1 023       0.033200
     53 H91C         1.8560     0.6710     0.7330 hc         1 023       0.043700
     54 H92C         2.7970    -0.5210    -0.1300 hc         1 023       0.043700
     55 H131         3.3610     1.1610    -1.8790 hc         1 023       0.047700
     56 H132         2.4610     2.3780    -0.9930 hc         1 023       0.047700
     57 H23          5.4140     0.1350    -0.8740 ha         1 023       0.110500
     58 H24          3.4040     3.4080     1.0060 ha         1 023       0.110500
     59 H26          7.3840     0.5240     0.5490 ha         1 023       0.111500
     60 H28          7.3750     2.3590     2.2140 ha         1 023       0.111000
     61 H27          5.3720     3.7990     2.4330 ha         1 023       0.111500
@<TRIPOS>BOND
     1     1     2 1   
     2     1    29 1   
     3     1    30 1   
     4     1    31 1   
     5     2     3 1   
     6     2    32 1   
     7     3     4 2   
     8     3     5 1   
     9     5     6 1   
    10     5    10 1   
    11     5    33 1   
    12     6     7 1   
    13     6     8 1   
    14     6     9 1   
    15     7    35 1   
    16     7    36 1   
    17     7    37 1   
    18     8    38 1   
    19     8    39 1   
    20     8    40 1   
    21     9    41 1   
    22     9    42 1   
    23     9    43 1   
    24    10    11 1   
    25    10    34 1   
    26    11    12 2   
    27    11    13 1   
    28    13    14 1   
    29    13    20 1   
    30    13    44 1   
    31    14    15 1   
    32    14    16 1   
    33    14    45 1   
    34    15    48 1   
    35    15    49 1   
    36    15    50 1   
    37    16    17 1   
    38    16    18 1   
    39    17    51 1   
    40    18    19 2   
    41    18    52 1   
    42    20    21 1   
    43    20    46 1   
    44    20    47 1   
    45    21    22 1   
    46    21    53 1   
    47    21    54 1   
    48    22    23 1   
    49    22    55 1   
    50    22    56 1   
    51    23    24 ar  
    52    23    28 ar  
    53    24    25 ar  
    54    24    57 1   
    55    25    26 ar  
    56    25    59 1   
    57    26    27 ar  
    58    26    60 1   
    59    27    28 ar  
    60    27    61 1   
    61    28    58 1   
@<TRIPOS>SUBSTRUCTURE
     1 023         1 TEMP              0 ****  ****    0 ROOT
