@<TRIPOS>MOLECULE
024
   45    47     1     0     0
SMALL
No Charge or Current Charge


@<TRIPOS>ATOM
      1 S1           1.0320     2.2660     1.0820 ss         1 024       0.217000
      2 C2           2.6080     1.7580     0.4880 cc         1 024      -0.245600
      3 C3           2.5710     0.4310     0.1140 cd         1 024       0.110100
      4 C4           1.3270    -0.2370     0.3580 cd         1 024      -0.030900
      5 C5           0.4080     0.6300     0.9030 cc         1 024      -0.258000
      6 C6           3.7490     2.6990     0.4090 c          1 024       0.733600
      7 O7           4.8300     2.3260    -0.0220 o          1 024      -0.703500
      8 O8           3.5660     3.8470     0.7870 o          1 024      -0.703500
      9 C9          -0.9440     0.2180     1.2600 ca         1 024       0.095000
     10 C10         -2.0460     0.8390     0.6490 ca         1 024      -0.189000
     11 C11         -3.3540     0.4630     0.9860 ca         1 024       0.323000
     12 C12         -3.5640    -0.5310     1.9580 ca         1 024      -0.222000
     13 C13         -2.4690    -1.1490     2.5840 ca         1 024      -0.083000
     14 C14         -1.1620    -0.7720     2.2360 ca         1 024      -0.144000
     15 Br19         1.0030    -2.0790     0.0290 br         1 024      -0.117100
     16 O20          3.6680    -0.2090    -0.3980 os         1 024      -0.292100
     17 C21          3.6340    -0.6790    -1.7680 c3         1 024       0.025600
     18 C22          4.9050    -1.4840    -2.1800 c          1 024       0.734000
     19 O25          4.9850    -1.8610    -3.3430 o          1 024      -0.742000
     20 O26          5.7740    -1.7240    -1.3490 o          1 024      -0.742000
     21 N27         -4.4240     1.0970     0.3530 nu         1 024      -0.993200
     22 C28         -5.6960     0.4410     0.0080 c6         1 024       0.252500
     23 C30         -6.6750     1.4950    -0.5720 c6         1 024      -0.092900
     24 C31         -8.0130     0.8430    -1.0020 c6         1 024      -0.071400
     25 C32         -7.7760    -0.3040    -2.0150 c6         1 024      -0.074400
     26 C33         -6.7930    -1.3580    -1.4490 c6         1 024      -0.071400
     27 C34         -5.4570    -0.7030    -1.0150 c6         1 024      -0.092900
     28 H10         -1.8800     1.6090    -0.0980 ha         1 024       0.119000
     29 H12         -4.5690    -0.8250     2.2410 ha         1 024       0.089000
     30 H13         -2.6320    -1.9140     3.3400 ha         1 024       0.088000
     31 H14         -0.3150    -1.2440     2.7270 ha         1 024       0.127000
     32 H211         3.5450     0.1770    -2.4500 h1         1 024       0.020200
     33 H212         2.7690    -1.3270    -1.9450 h1         1 024       0.020200
     34 HN27        -4.1500     1.8820    -0.2380 hn         1 024       0.479000
     35 H28         -6.1590     0.0150     0.9110 h1         1 024       0.043700
     36 H301        -6.8710     2.2750     0.1760 hc         1 024       0.048450
     37 H302        -6.2190     1.9970    -1.4370 hc         1 024       0.048450
     38 H311        -8.5360     0.4530    -0.1170 hc         1 024       0.033700
     39 H312        -8.6720     1.6020    -1.4460 hc         1 024       0.033700
     40 H321        -8.7320    -0.7840    -2.2660 hc         1 024       0.031700
     41 H322        -7.3780     0.1070    -2.9530 hc         1 024       0.031700
     42 H331        -7.2500    -1.8660    -0.5890 hc         1 024       0.033700
     43 H332        -6.6010    -2.1320    -2.2040 hc         1 024       0.033700
     44 H341        -4.9370    -0.3110    -1.9000 hc         1 024       0.048450
     45 H342        -4.8010    -1.4690    -0.5810 hc         1 024       0.048450
@<TRIPOS>BOND
     1     1     2 1   
     2     1     5 1   
     3     2     3 2   
     4     2     6 1   
     5     3     4 1   
     6     3    16 1   
     7     4     5 2   
     8     4    15 1   
     9     5     9 1   
    10     6     7 1   
    11     6     8 1   
    12     9    10 ar  
    13     9    14 ar  
    14    10    11 ar  
    15    10    28 1   
    16    11    12 ar  
    17    11    21 1   
    18    12    13 ar  
    19    12    29 1   
    20    13    14 ar  
    21    13    30 1   
    22    14    31 1   
    23    16    17 1   
    24    17    18 1   
    25    17    32 1   
    26    17    33 1   
    27    18    19 1   
    28    18    20 1   
    29    21    22 1   
    30    21    34 1   
    31    22    23 1   
    32    22    27 1   
    33    22    35 1   
    34    23    24 1   
    35    23    36 1   
    36    23    37 1   
    37    24    25 1   
    38    24    38 1   
    39    24    39 1   
    40    25    26 1   
    41    25    40 1   
    42    25    41 1   
    43    26    27 1   
    44    26    42 1   
    45    26    43 1   
    46    27    44 1   
    47    27    45 1   
@<TRIPOS>SUBSTRUCTURE
     1 024         1 TEMP              0 ****  ****    0 ROOT
