@<TRIPOS>MOLECULE
024
   45    47     1     0     0
SMALL
bcc


@<TRIPOS>ATOM
      1 S1           0.8050     1.8800     0.5470 ss         1 024      -0.072800
      2 C2           2.4860     1.6410     0.2820 cc         1 024      -0.100700
      3 C3           2.7870     0.3060     0.2270 cd         1 024       0.110100
      4 C4           1.6240    -0.5090     0.3930 cd         1 024      -0.030900
      5 C5           0.4680     0.1910     0.5830 cc         1 024      -0.113100
      6 C6           3.3350     2.8810     0.2050 c          1 024       0.944200
      7 O7           4.5570     2.7360     0.0400 o          1 024      -0.808800
      8 O8           2.6950     3.9440     0.3270 o          1 024      -0.808800
      9 C9          -0.9060    -0.2750     0.7940 ca         1 024       0.095000
     10 C10         -1.9310     0.2580     0.0240 ca         1 024      -0.207000
     11 C11         -3.2700    -0.1230     0.2170 ca         1 024       0.184600
     12 C12         -3.5440    -1.0710     1.2150 ca         1 024      -0.240000
     13 C13         -2.5140    -1.5930     1.9840 ca         1 024      -0.101000
     14 C14         -1.1960    -1.2100     1.7920 ca         1 024      -0.162000
     15 BR19         1.7400    -2.3750     0.2870 br         1 024      -0.117100
     16 O20          4.0000    -0.2410     0.0540 os         1 024      -0.268900
     17 C21          4.4850    -0.2080    -1.2870 c3         1 024       0.002400
     18 C22          5.8770    -0.8440    -1.3860 c          1 024       0.944600
     19 O25          6.3400    -0.8500    -2.5450 o          1 024      -0.847300
     20 O26          6.4050    -1.2790    -0.3520 o          1 024      -0.847300
     21 N27         -4.2410     0.4230    -0.5680 nu         1 024      -0.799600
     22 C28         -5.6630     0.3030    -0.3260 c6         1 024       0.252500
     23 C30         -6.3780     1.5330    -0.8800 c6         1 024      -0.092900
     24 C31         -7.8850     1.4520    -0.6550 c6         1 024      -0.071400
     25 C32         -8.4720     0.1700    -1.2340 c6         1 024      -0.074400
     26 C33         -7.7560    -1.0600    -0.6860 c6         1 024      -0.071400
     27 C34         -6.2520    -0.9740    -0.9290 c6         1 024      -0.092900
     28 H10         -1.7000     0.9790    -0.7530 ha         1 024       0.137000
     29 H12         -4.5560    -1.4070     1.3940 ha         1 024       0.107000
     30 H13         -2.7510    -2.3120     2.7570 ha         1 024       0.106000
     31 H14         -0.4120    -1.6060     2.4210 ha         1 024       0.145000
     32 H211         4.5350     0.8260    -1.6380 h1         1 024       0.020200
     33 H212         3.7960    -0.7500    -1.9470 h1         1 024       0.020200
     34 HN27        -3.9500     1.1650    -1.1830 hn         1 024       0.423800
     35 H28         -5.8370     0.2840     0.7590 h1         1 024       0.043700
     36 H301        -5.9740     2.4350    -0.4130 hc         1 024       0.048450
     37 H302        -6.1730     1.6130    -1.9550 hc         1 024       0.048450
     38 H311        -8.0910     1.4960     0.4200 hc         1 024       0.033700
     39 H312        -8.3690     2.3260    -1.0970 hc         1 024       0.033700
     40 H321        -9.5420     0.1140    -1.0230 hc         1 024       0.031700
     41 H322        -8.3700     0.1870    -2.3250 hc         1 024       0.031700
     42 H331        -7.9460    -1.1470     0.3890 hc         1 024       0.033700
     43 H332        -8.1550    -1.9680    -1.1430 hc         1 024       0.033700
     44 H341        -6.0480    -0.9770    -2.0060 hc         1 024       0.048450
     45 H342        -5.7510    -1.8530    -0.5160 hc         1 024       0.048450
@<TRIPOS>BOND
     1     1     2 1   
     2     1     5 1   
     3     2     3 2   
     4     2     6 1   
     5     3     4 1   
     6     3    16 1   
     7     4     5 2   
     8     4    15 1   
     9     5     9 1   
    10     6     7 1   
    11     6     8 1   
    12     9    10 ar  
    13     9    14 ar  
    14    10    11 ar  
    15    10    28 1   
    16    11    12 ar  
    17    11    21 1   
    18    12    13 ar  
    19    12    29 1   
    20    13    14 ar  
    21    13    30 1   
    22    14    31 1   
    23    16    17 1   
    24    17    18 1   
    25    17    32 1   
    26    17    33 1   
    27    18    19 1   
    28    18    20 1   
    29    21    22 1   
    30    21    34 1   
    31    22    23 1   
    32    22    27 1   
    33    22    35 1   
    34    23    24 1   
    35    23    36 1   
    36    23    37 1   
    37    24    25 1   
    38    24    38 1   
    39    24    39 1   
    40    25    26 1   
    41    25    40 1   
    42    25    41 1   
    43    26    27 1   
    44    26    42 1   
    45    26    43 1   
    46    27    44 1   
    47    27    45 1   
@<TRIPOS>SUBSTRUCTURE
     1 024         1 TEMP              0 ****  ****    0 ROOT
