@<TRIPOS>MOLECULE
025
   18    18     1     0     0
SMALL
No Charge or Current Charge


@<TRIPOS>ATOM
      1 C1          -1.0390     0.4520    -0.0100 ca         1 025      -0.226500
      2 S11         -2.6740    -0.4110    -0.0390 s6         1 025       1.262100
      3 O24         -2.3850    -1.6490     0.7010 o          1 025      -0.689533
      4 O25         -3.5530     0.5600     0.6320 o          1 025      -0.689533
      5 C2          -0.9740     1.8590    -0.0060 ca         1 025       0.004000
      6 C3           0.2720     2.5070     0.0130 ca         1 025      -0.158000
      7 C4           1.4610     1.7590     0.0180 ca         1 025      -0.059000
      8 C5           1.4130     0.3490    -0.0040 ca         1 025      -0.235300
      9 C6           2.7000    -0.4820     0.0070 c3         1 025       0.353300
     10 F61          3.7640     0.2000    -0.4760 f          1 025      -0.125000
     11 F1           3.0190    -0.8760     1.2600 f          1 025      -0.125000
     12 F6           2.5890    -1.6030    -0.7430 f          1 025      -0.125000
     13 C10          0.1560    -0.2960    -0.0130 ca         1 025       0.025000
     14 H2          -1.8850     2.4550    -0.0160 ha         1 025       0.133000
     15 H3           0.3160     3.5930     0.0230 ha         1 025       0.098000
     16 H4           2.4150     2.2820     0.0390 ha         1 025       0.105000
     17 H10          0.1080    -1.3840    -0.0220 ha         1 025       0.142000
     18 O1          -2.8860    -0.5700    -1.4860 o          1 025      -0.689533
@<TRIPOS>BOND
     1     1     2 1   
     2     1     5 ar  
     3     1    13 ar  
     4     2     3 1   
     5     2     4 1   
     6     2    18 1   
     7     5     6 ar  
     8     5    14 1   
     9     6     7 ar  
    10     6    15 1   
    11     7     8 ar  
    12     7    16 1   
    13     8     9 1   
    14     8    13 ar  
    15     9    10 1   
    16     9    11 1   
    17     9    12 1   
    18    13    17 1   
@<TRIPOS>SUBSTRUCTURE
     1 025         1 TEMP              0 ****  ****    0 ROOT
