@<TRIPOS>MOLECULE
025
   18    18     1     0     0
SMALL
abcg2


@<TRIPOS>ATOM
      1 C1          -1.0000     0.4600     0.0320 ca         1 025      -0.226500
      2 S11         -2.5820    -0.3860    -0.0080 s6         1 025       1.262100
      3 O24         -2.3810    -1.6230     0.7630 o          1 025      -0.689533
      4 O25         -3.5410     0.5460     0.6050 o          1 025      -0.689533
      5 C2          -0.9480     1.8470    -0.0000 ca         1 025       0.004000
      6 C3           0.2800     2.4890    -0.0370 ca         1 025      -0.158000
      7 C4           1.4570     1.7550    -0.0440 ca         1 025      -0.059000
      8 C5           1.3980     0.3680    -0.0100 ca         1 025      -0.235300
      9 C6           2.6430    -0.4630     0.0050 c3         1 025       0.353300
     10 F61          3.7510     0.2650    -0.1530 f          1 025      -0.125000
     11 F1           2.7760    -1.1330     1.1590 f          1 025      -0.125000
     12 F6           2.6360    -1.3840    -0.9690 f          1 025      -0.125000
     13 C10          0.1700    -0.2830     0.0300 ca         1 025       0.025000
     14 H2          -1.8590     2.4310     0.0120 ha         1 025       0.133000
     15 H3           0.3230     3.5690    -0.0590 ha         1 025       0.098000
     16 H4           2.4050     2.2750    -0.0730 ha         1 025       0.105000
     17 H10          0.1190    -1.3640     0.0660 ha         1 025       0.142000
     18 O1          -2.8300    -0.6230    -1.4390 o          1 025      -0.689533
@<TRIPOS>BOND
     1     1     2 1   
     2     1     5 ar  
     3     1    13 ar  
     4     2     3 1   
     5     2     4 1   
     6     2    18 1   
     7     5     6 ar  
     8     5    14 1   
     9     6     7 ar  
    10     6    15 1   
    11     7     8 ar  
    12     7    16 1   
    13     8     9 1   
    14     8    13 ar  
    15     9    10 1   
    16     9    11 1   
    17     9    12 1   
    18    13    17 1   
@<TRIPOS>SUBSTRUCTURE
     1 025         1 TEMP              0 ****  ****    0 ROOT
