@<TRIPOS>MOLECULE
026
   27    27     1     0     0
SMALL
No Charge or Current Charge


@<TRIPOS>ATOM
      1 N26         -3.3520     0.4430    -0.1350 n7         1 026      -0.840400
      2 C27         -2.9300    -0.8870     0.3920 c6         1 026       0.146300
      3 C28         -1.5170    -1.3070    -0.1290 c6         1 026       0.128800
      4 N29         -0.4700    -0.2780     0.1600 n3         1 026      -0.716600
      5 C30         -0.8990     1.0580    -0.3670 c6         1 026       0.128800
      6 C31         -2.3160     1.4770     0.1490 c6         1 026       0.146300
      7 C32          0.8750    -0.7060    -0.3010 c3         1 026       0.170800
      8 C33          2.0400     0.1990     0.1580 c3         1 026      -0.080400
      9 C8           3.4160    -0.3850    -0.2160 c3         1 026       0.149800
     10 N9           4.5190     0.4920     0.2210 n8         1 026      -0.995200
     11 H271        -2.9060    -0.8530     1.4920 h1         1 026       0.058700
     12 H272        -3.6660    -1.6530     0.1050 h1         1 026       0.058700
     13 H281        -1.2450    -2.2660     0.3370 h1         1 026       0.033200
     14 H282        -1.5800    -1.4850    -1.2130 h1         1 026       0.033200
     15 H301        -0.1880     1.8410    -0.0670 h1         1 026       0.033200
     16 H302        -0.9150     1.0420    -1.4670 h1         1 026       0.033200
     17 H311        -2.6050     2.4320    -0.3150 h1         1 026       0.058700
     18 H312        -2.2590     1.6470     1.2350 h1         1 026       0.058700
     19 H321         1.0750    -1.7170     0.0800 h1         1 026       0.027200
     20 H322         0.8910    -0.7700    -1.3980 h1         1 026       0.027200
     21 H331         1.9420     1.1900    -0.2990 hc         1 026       0.054700
     22 H332         1.9830     0.3310     1.2450 hc         1 026       0.054700
     23 H8C1         3.5420    -1.3690     0.2570 h1         1 026       0.024700
     24 H8C2         3.4800    -0.5110    -1.3050 h1         1 026       0.024700
     25 H9N1         4.5180     0.5440     1.2470 hn         1 026       0.392500
     26 H9N2         5.4140     0.0370     0.0050 hn         1 026       0.392500
     27 H2          -3.4400     0.3600    -1.1550 hn         1 026       0.398000
@<TRIPOS>BOND
     1     1     2 1   
     2     1     6 1   
     3     1    27 1   
     4     2     3 1   
     5     2    11 1   
     6     2    12 1   
     7     3     4 1   
     8     3    13 1   
     9     3    14 1   
    10     4     5 1   
    11     4     7 1   
    12     5     6 1   
    13     5    15 1   
    14     5    16 1   
    15     6    17 1   
    16     6    18 1   
    17     7     8 1   
    18     7    19 1   
    19     7    20 1   
    20     8     9 1   
    21     8    21 1   
    22     8    22 1   
    23     9    10 1   
    24     9    23 1   
    25     9    24 1   
    26    10    25 1   
    27    10    26 1   
@<TRIPOS>SUBSTRUCTURE
     1 026         1 TEMP              0 ****  ****    0 ROOT
