@<TRIPOS>MOLECULE
026
   27    27     1     0     0
SMALL
bcc


@<TRIPOS>ATOM
      1 N26         -3.2770     0.4320    -0.0720 n7         1 026      -0.785200
      2 C27         -2.8130    -0.8400     0.4580 c6         1 026       0.146300
      3 C28         -1.4660    -1.2740    -0.1030 c6         1 026       0.128800
      4 N29         -0.4650    -0.2450     0.1160 n3         1 026      -0.716600
      5 C30         -0.8900     1.0050    -0.4890 c6         1 026       0.128800
      6 C31         -2.2400     1.4420     0.0640 c6         1 026       0.146300
      7 C32          0.8480    -0.6650    -0.3400 c3         1 026       0.170800
      8 C33          1.9830     0.1600     0.2500 c3         1 026      -0.080400
      9 C8           3.3450    -0.3290    -0.2200 c3         1 026       0.149800
     10 N9           4.4120     0.4670     0.3690 n8         1 026      -0.884800
     11 H271        -2.7320    -0.7490     1.5460 h1         1 026       0.058700
     12 H272        -3.5620    -1.6080     0.2560 h1         1 026       0.058700
     13 H281        -1.1440    -2.1950     0.3910 h1         1 026       0.033200
     14 H282        -1.5820    -1.5100    -1.1770 h1         1 026       0.033200
     15 H301        -0.1510     1.7840    -0.2890 h1         1 026       0.033200
     16 H302        -0.9650     0.9110    -1.5890 h1         1 026       0.033200
     17 H311        -2.5620     2.3560    -0.4380 h1         1 026       0.058700
     18 H312        -2.1290     1.6800     1.1270 h1         1 026       0.058700
     19 H321         0.9870    -1.7080    -0.0400 h1         1 026       0.027200
     20 H322         0.9150    -0.6530    -1.4430 h1         1 026       0.027200
     21 H331         1.8810     1.2150    -0.0150 hc         1 026       0.054700
     22 H332         1.9270     0.1020     1.3420 hc         1 026       0.054700
     23 H8C1         3.4310    -1.4050    -0.0080 h1         1 026       0.024700
     24 H8C2         3.4050    -0.2280    -1.3070 h1         1 026       0.024700
     25 H9N1         4.4410     0.2960     1.3670 hn         1 026       0.337300
     26 H9N2         5.3050     0.1500     0.0140 hn         1 026       0.337300
     27 H2          -3.4930     0.3170    -1.0560 hn         1 026       0.342800
@<TRIPOS>BOND
     1     1     2 1   
     2     1     6 1   
     3     1    27 1   
     4     2     3 1   
     5     2    11 1   
     6     2    12 1   
     7     3     4 1   
     8     3    13 1   
     9     3    14 1   
    10     4     5 1   
    11     4     7 1   
    12     5     6 1   
    13     5    15 1   
    14     5    16 1   
    15     6    17 1   
    16     6    18 1   
    17     7     8 1   
    18     7    19 1   
    19     7    20 1   
    20     8     9 1   
    21     8    21 1   
    22     8    22 1   
    23     9    10 1   
    24     9    23 1   
    25     9    24 1   
    26    10    25 1   
    27    10    26 1   
@<TRIPOS>SUBSTRUCTURE
     1 026         1 TEMP              0 ****  ****    0 ROOT
