@<TRIPOS>MOLECULE
027
   55    58     1     0     0
SMALL
bcc


@<TRIPOS>ATOM
      1 N1          -2.2780    -0.7710    -0.0370 nc         1 027      -0.531300
      2 N2          -1.5650    -1.9210    -0.0660 n          1 027      -0.193800
      3 C3          -1.6670     0.3620    -0.0420 cd         1 027       0.645800
      4 C4          -0.2150    -2.0210    -0.1160 c          1 027       0.690100
      5 C5           0.4960    -0.7330    -0.1210 ca         1 027      -0.087600
      6 C6          -0.2230     0.4650    -0.0770 ca         1 027      -0.188900
      7 C7          -3.7790     1.6460     0.0100 cc         1 027       0.581200
      8 N8          -2.4040     1.5130    -0.0150 nu         1 027      -0.807900
      9 C9          -4.8060     0.6780     0.0220 cc         1 027      -0.313300
     10 N10         -5.5960     2.7040     0.0450 na         1 027      -0.005600
     11 N11         -4.2710     2.8730     0.0240 nd         1 027      -0.593800
     12 N12          3.9920     0.4380    -0.1310 nh         1 027      -0.669000
     13 C13          1.8820    -0.7420    -0.1540 ca         1 027      -0.146000
     14 C14          2.6180     0.4480    -0.1420 ca         1 027       0.193600
     15 C15         -5.9710     1.4170     0.0450 cd         1 027      -0.076600
     16 C16          0.5060     1.6580    -0.0730 ca         1 027      -0.078000
     17 N17          6.8390     0.4470    -0.2520 n3         1 027      -0.713600
     18 O18          0.3730    -3.1000    -0.1520 o          1 027      -0.644500
     19 C19         -2.4120    -3.1190    -0.0520 c3         1 027       0.131700
     20 C20          1.8810     1.6530    -0.1110 ca         1 027      -0.183000
     21 C21          4.7330     1.6780    -0.0080 c6         1 027       0.210300
     22 C22          4.7210    -0.5710    -0.8850 c6         1 027       0.210300
     23 C23          6.0990    -0.7960    -0.2970 c6         1 027       0.153300
     24 C24          6.1200     1.4110     0.5520 c6         1 027       0.153300
     25 C25          8.1880     0.2530     0.2270 c3         1 027       0.151100
     26 C26         -7.3920     0.9820     0.0670 c3         1 027      -0.032800
     27 C27         -3.2370    -3.1810     1.2250 c3         1 027      -0.099600
     28 C28         -3.2800    -3.1790    -1.3000 c3         1 027      -0.099600
     29 HN8         -1.9060     2.3870    -0.0170 hn         1 027       0.455800
     30 H9          -4.7170    -0.3910     0.0150 ha         1 027       0.183000
     31 H13          2.3800    -1.7000    -0.1630 ha         1 027       0.162000
     32 H16          0.0180     2.6240    -0.0560 ha         1 027       0.130000
     33 H19         -1.7280    -3.9650    -0.0630 h1         1 027       0.081700
     34 H20          2.3860     2.6070    -0.1350 ha         1 027       0.134000
     35 H21          4.8120     2.1930    -0.9760 h1         1 027       0.049450
     36 H21A         4.2250     2.3490     0.6830 h1         1 027       0.049450
     37 H22          4.1850    -1.5160    -0.8850 h1         1 027       0.049450
     38 H22A         4.8210    -0.2520    -1.9320 h1         1 027       0.049450
     39 H23          6.6330    -1.5120    -0.9260 h1         1 027       0.042450
     40 H23A         5.9970    -1.2510     0.7030 h1         1 027       0.042450
     41 H24          6.0200     1.0730     1.5980 h1         1 027       0.042450
     42 H24A         6.6730     2.3530     0.5700 h1         1 027       0.042450
     43 H25          8.2350    -0.1170     1.2630 h1         1 027       0.033033
     44 H25A         8.7070    -0.4680    -0.4070 h1         1 027       0.033033
     45 H25B         8.7400     1.1930     0.1840 h1         1 027       0.033033
     46 H26         -7.9040     1.3280     0.9660 hc         1 027       0.051033
     47 H26A        -7.9430     1.3650    -0.7930 hc         1 027       0.051033
     48 H26B        -7.4510    -0.1040     0.0460 hc         1 027       0.051033
     49 H27         -3.9600    -2.3660     1.2780 hc         1 027       0.042533
     50 H27A        -3.7890    -4.1200     1.2560 hc         1 027       0.042533
     51 H27B        -2.6030    -3.1370     2.1110 hc         1 027       0.042533
     52 H28         -3.8410    -4.1140    -1.3100 hc         1 027       0.042533
     53 H28A        -3.9950    -2.3570    -1.3310 hc         1 027       0.042533
     54 H28B        -2.6750    -3.1440    -2.2070 hc         1 027       0.042533
     55 HN10        -6.1960     3.5140     0.0600 hn         1 027       0.318700
@<TRIPOS>BOND
     1     1     2 1   
     2     1     3 2   
     3     2     4 1   
     4     2    19 1   
     5     3     6 1   
     6     3     8 1   
     7     4     5 1   
     8     4    18 2   
     9     5     6 ar  
    10     5    13 ar  
    11     6    16 ar  
    12     7     8 1   
    13     7     9 1   
    14     7    11 2   
    15     8    29 1   
    16     9    15 2   
    17     9    30 1   
    18    10    11 1   
    19    10    15 1   
    20    10    55 1   
    21    12    14 1   
    22    12    21 1   
    23    12    22 1   
    24    13    14 ar  
    25    13    31 1   
    26    14    20 ar  
    27    15    26 1   
    28    16    20 ar  
    29    16    32 1   
    30    17    23 1   
    31    17    24 1   
    32    17    25 1   
    33    19    27 1   
    34    19    28 1   
    35    19    33 1   
    36    20    34 1   
    37    21    24 1   
    38    21    35 1   
    39    21    36 1   
    40    22    23 1   
    41    22    37 1   
    42    22    38 1   
    43    23    39 1   
    44    23    40 1   
    45    24    41 1   
    46    24    42 1   
    47    25    43 1   
    48    25    44 1   
    49    25    45 1   
    50    26    46 1   
    51    26    47 1   
    52    26    48 1   
    53    27    49 1   
    54    27    50 1   
    55    27    51 1   
    56    28    52 1   
    57    28    53 1   
    58    28    54 1   
@<TRIPOS>SUBSTRUCTURE
     1 027         1 TEMP              0 ****  ****    0 ROOT
