@<TRIPOS>MOLECULE
027
   55    58     1     0     0
SMALL
No Charge or Current Charge


@<TRIPOS>ATOM
      1 N1          -2.3790    -0.8020    -0.3410 nc         1 027      -0.531300
      2 N2          -1.6700    -1.9990    -0.2300 n          1 027      -0.126800
      3 C3          -1.7390     0.3580    -0.3710 cd         1 027       0.645800
      4 C4          -0.2560    -2.1120    -0.1330 c          1 027       0.547600
      5 C5           0.4800    -0.7970    -0.1860 ca         1 027      -0.087600
      6 C6          -0.2570     0.4050    -0.2990 ca         1 027      -0.188900
      7 C7          -3.8440     1.7070    -0.4460 cc         1 027       0.515900
      8 N8          -2.5160     1.4590    -0.5520 nu         1 027      -0.863100
      9 C9          -4.7760     0.9110     0.2270 cc         1 027      -0.230000
     10 N10         -5.6850     2.7150    -0.6120 na         1 027      -0.005200
     11 N11         -4.3290     2.8070    -0.9540 nd         1 027      -0.593800
     12 N12          3.9980     0.4730    -0.0740 nh         1 027      -0.807400
     13 C13          1.8900    -0.7560    -0.1130 ca         1 027      -0.128000
     14 C14          2.5840     0.4640    -0.1490 ca         1 027       0.332000
     15 C15         -5.9730     1.5500     0.1180 cd         1 027      -0.127300
     16 C16          0.4440     1.6320    -0.3240 ca         1 027      -0.060000
     17 N17          6.9830     0.5760    -0.0840 n3         1 027      -0.713600
     18 O18          0.3280    -3.1850    -0.0120 o          1 027      -0.569000
     19 C19         -2.5090    -3.2330    -0.1650 c3         1 027       0.131700
     20 C20          1.8470     1.6570    -0.2510 ca         1 027      -0.165000
     21 C21          4.7410     1.6540     0.4730 c6         1 027       0.210300
     22 C22          4.8030    -0.3060    -1.0700 c6         1 027       0.210300
     23 C23          6.2430    -0.6360    -0.5540 c6         1 027       0.153300
     24 C24          6.1810     1.2860     0.9590 c6         1 027       0.153300
     25 C25          8.3580     0.2670     0.3640 c3         1 027       0.151100
     26 C26         -7.3310     1.1730     0.6450 c3         1 027      -0.032800
     27 C27         -3.0580    -3.4610     1.2610 c3         1 027      -0.099600
     28 C28         -3.6520    -3.2590    -1.2110 c3         1 027      -0.099600
     29 HN8         -2.0100     2.2540    -0.9150 hn         1 027       0.511000
     30 H9          -4.5740    -0.0200     0.7410 ha         1 027       0.165000
     31 H13          2.4520    -1.6790    -0.0140 ha         1 027       0.144000
     32 H16         -0.0860     2.5790    -0.3970 ha         1 027       0.112000
     33 H19         -1.8710    -4.0940    -0.4030 h1         1 027       0.081700
     34 H20          2.3560     2.6150    -0.2850 ha         1 027       0.116000
     35 H21          4.8210     2.4340    -0.2990 h1         1 027       0.049450
     36 H21A         4.1930     2.0890     1.3220 h1         1 027       0.049450
     37 H22          4.3050    -1.2530    -1.3240 h1         1 027       0.049450
     38 H22A         4.8900     0.2700    -2.0030 h1         1 027       0.049450
     39 H23          6.7980    -1.1310    -1.3630 h1         1 027       0.042450
     40 H23A         6.1570    -1.3640     0.2660 h1         1 027       0.042450
     41 H24          6.0920     0.6550     1.8570 h1         1 027       0.042450
     42 H24A         6.6910     2.2100     1.2690 h1         1 027       0.042450
     43 H25          8.3460    -0.4130     1.2270 h1         1 027       0.033033
     44 H25A         8.9300    -0.2110    -0.4420 h1         1 027       0.033033
     45 H25B         8.8860     1.1840     0.6560 h1         1 027       0.033033
     46 H26         -7.6940     1.9150     1.3670 hc         1 027       0.051033
     47 H26A        -8.0650     1.1070    -0.1670 hc         1 027       0.051033
     48 H26B        -7.3040     0.2010     1.1510 hc         1 027       0.051033
     49 H27         -3.7310    -2.6460     1.5560 hc         1 027       0.042533
     50 H27A        -3.6140    -4.4040     1.3160 hc         1 027       0.042533
     51 H27B        -2.2370    -3.5080     1.9860 hc         1 027       0.042533
     52 H28         -4.1550    -4.2330    -1.2040 hc         1 027       0.042533
     53 H28A        -4.4040    -2.4880    -1.0030 hc         1 027       0.042533
     54 H28B        -3.2530    -3.0910    -2.2190 hc         1 027       0.042533
     55 HN10        -6.3540     3.4390    -0.8750 hn         1 027       0.369000
@<TRIPOS>BOND
     1     1     2 1   
     2     1     3 2   
     3     2     4 1   
     4     2    19 1   
     5     3     6 1   
     6     3     8 1   
     7     4     5 1   
     8     4    18 2   
     9     5     6 ar  
    10     5    13 ar  
    11     6    16 ar  
    12     7     8 1   
    13     7     9 1   
    14     7    11 2   
    15     8    29 1   
    16     9    15 2   
    17     9    30 1   
    18    10    11 1   
    19    10    15 1   
    20    10    55 1   
    21    12    14 1   
    22    12    21 1   
    23    12    22 1   
    24    13    14 ar  
    25    13    31 1   
    26    14    20 ar  
    27    15    26 1   
    28    16    20 ar  
    29    16    32 1   
    30    17    23 1   
    31    17    24 1   
    32    17    25 1   
    33    19    27 1   
    34    19    28 1   
    35    19    33 1   
    36    20    34 1   
    37    21    24 1   
    38    21    35 1   
    39    21    36 1   
    40    22    23 1   
    41    22    37 1   
    42    22    38 1   
    43    23    39 1   
    44    23    40 1   
    45    24    41 1   
    46    24    42 1   
    47    25    43 1   
    48    25    44 1   
    49    25    45 1   
    50    26    46 1   
    51    26    47 1   
    52    26    48 1   
    53    27    49 1   
    54    27    50 1   
    55    27    51 1   
    56    28    52 1   
    57    28    53 1   
    58    28    54 1   
@<TRIPOS>SUBSTRUCTURE
     1 027         1 TEMP              0 ****  ****    0 ROOT
