@<TRIPOS>MOLECULE
029
   30    30     1     0     0
SMALL
No Charge or Current Charge


@<TRIPOS>ATOM
      1 C1           0.8480    -0.5300    -1.5210 c6         1 029      -0.063900
      2 C6          -0.2870     0.2270    -0.7770 c6         1 029      -0.066700
      3 C7          -1.5940    -0.6190    -0.7560 c3         1 029       0.213800
      4 N8          -2.7490     0.1580    -0.2880 nu         1 029      -0.898400
      5 C9          -3.9420    -0.3670    -0.2180 c2         1 029       0.812100
      6 N11         -4.8270     0.3330    -0.7170 n2         1 029      -0.936100
      7 N10         -4.0040    -0.6990     1.0280 nv         1 029      -1.075200
      8 C5           0.1820     0.6230     0.6540 c6         1 029      -0.063900
      9 C4           1.4870     1.4600     0.6190 c6         1 029      -0.041900
     10 C3           2.6390     0.7660    -0.1660 c6         1 029      -0.196700
     11 C12          3.3780    -0.3370     0.6450 c          1 029       0.717000
     12 O13          4.5580    -0.1490     0.9070 o          1 029      -0.738500
     13 C2           2.1570     0.3000    -1.5710 c6         1 029      -0.041900
     14 H11A         1.0340    -1.4980    -1.0380 hc         1 029       0.038950
     15 H12          0.5300    -0.7600    -2.5470 hc         1 029       0.038950
     16 H6          -0.5120     1.1430    -1.3430 hc         1 029       0.026700
     17 H71         -1.7950    -0.9790    -1.7740 h1         1 029       0.029700
     18 H72         -1.4410    -1.4990    -0.1150 h1         1 029       0.029700
     19 HN8         -2.8590     1.0490    -0.7550 hn         1 029       0.487000
     20 H11         -5.6570     0.1650    -0.1390 hn         1 029       0.365400
     21 H101        -3.1040    -0.4400     1.4020 hn         1 029       0.452000
     22 H102        -4.1880    -1.6860     1.1380 hn         1 029       0.452000
     23 H51         -0.6000     1.2060     1.1580 hc         1 029       0.038950
     24 H52A         0.3280    -0.2780     1.2640 hc         1 029       0.038950
     25 H41          1.2700     2.4300     0.1500 hc         1 029       0.022450
     26 H42          1.8150     1.6850     1.6430 hc         1 029       0.022450
     27 H3           3.3940     1.5440    -0.3470 hc         1 029       0.027700
     28 H21          2.9490    -0.2790    -2.0650 hc         1 029       0.022450
     29 H22          1.9900     1.1840    -2.2020 hc         1 029       0.022450
     30 OXT          2.7720    -1.3400     0.9890 o          1 029      -0.738500
@<TRIPOS>BOND
     1     1     2 1   
     2     1    13 1   
     3     1    14 1   
     4     1    15 1   
     5     2     3 1   
     6     2     8 1   
     7     2    16 1   
     8     3     4 1   
     9     3    17 1   
    10     3    18 1   
    11     4     5 1   
    12     4    19 1   
    13     5     6 2   
    14     5     7 1   
    15     6    20 1   
    16     7    21 1   
    17     7    22 1   
    18     8     9 1   
    19     8    23 1   
    20     8    24 1   
    21     9    10 1   
    22     9    25 1   
    23     9    26 1   
    24    10    11 1   
    25    10    13 1   
    26    10    27 1   
    27    11    12 1   
    28    11    30 1   
    29    13    28 1   
    30    13    29 1   
@<TRIPOS>SUBSTRUCTURE
     1 029         1 TEMP              0 ****  ****    0 ROOT
