@<TRIPOS>MOLECULE
029
   30    30     1     0     0
SMALL
bcc


@<TRIPOS>ATOM
      1 C1           0.8410    -0.6570    -1.3730 c6         1 029      -0.063900
      2 C6          -0.2320     0.2670    -0.7990 c6         1 029      -0.066700
      3 C7          -1.5310    -0.5040    -0.5920 c3         1 029       0.213800
      4 N8          -2.6090     0.3840    -0.2160 nu         1 029      -0.843200
      5 C9          -3.8480    -0.0160     0.2050 c2         1 029       0.812100
      6 N11         -4.8130     0.8340     0.1900 n2         1 029      -0.936100
      7 N10         -3.9250    -1.2950     0.7040 nv         1 029      -0.964800
      8 C5           0.2680     0.9220     0.4870 c6         1 029      -0.063900
      9 C4           1.5910     1.6490     0.2700 c6         1 029      -0.041900
     10 C3           2.6670     0.7180    -0.2870 c6         1 029      -0.196700
     11 C12          3.1750    -0.3100     0.7560 c          1 029       0.927600
     12 O13          3.1550     0.0400     1.9540 o          1 029      -0.843800
     13 C2           2.1650     0.0710    -1.5770 c6         1 029      -0.041900
     14 H11A         0.9920    -1.5030    -0.6930 hc         1 029       0.038950
     15 H12          0.4960    -1.0790    -2.3210 hc         1 029       0.038950
     16 H6          -0.4200     1.0570    -1.5410 hc         1 029       0.026700
     17 H71         -1.7650    -1.0670    -1.5070 h1         1 029       0.029700
     18 H72         -1.3660    -1.2370     0.2030 h1         1 029       0.029700
     19 HN8         -2.6350     1.2610    -0.7130 hn         1 029       0.431800
     20 H11         -5.6600     0.4230     0.5650 hn         1 029       0.365400
     21 H101        -3.2910    -1.9910     0.3470 hn         1 029       0.396800
     22 H102        -4.8570    -1.6560     0.8210 hn         1 029       0.396800
     23 H51         -0.4810     1.6150     0.8780 hc         1 029       0.038950
     24 H52A         0.4030     0.1480     1.2500 hc         1 029       0.038950
     25 H41          1.4320     2.4750    -0.4330 hc         1 029       0.022450
     26 H42          1.9290     2.0970     1.2050 hc         1 029       0.022450
     27 H3           3.5440     1.3310    -0.5390 hc         1 029       0.027700
     28 H21          2.9120    -0.6170    -1.9740 hc         1 029       0.022450
     29 H22          2.0230     0.8500    -2.3340 hc         1 029       0.022450
     30 OXT          3.6130    -1.3960     0.3230 o          1 029      -0.843800
@<TRIPOS>BOND
     1     1     2 1   
     2     1    13 1   
     3     1    14 1   
     4     1    15 1   
     5     2     3 1   
     6     2     8 1   
     7     2    16 1   
     8     3     4 1   
     9     3    17 1   
    10     3    18 1   
    11     4     5 1   
    12     4    19 1   
    13     5     6 2   
    14     5     7 1   
    15     6    20 1   
    16     7    21 1   
    17     7    22 1   
    18     8     9 1   
    19     8    23 1   
    20     8    24 1   
    21     9    10 1   
    22     9    25 1   
    23     9    26 1   
    24    10    11 1   
    25    10    13 1   
    26    10    27 1   
    27    11    12 1   
    28    11    30 1   
    29    13    28 1   
    30    13    29 1   
@<TRIPOS>SUBSTRUCTURE
     1 029         1 TEMP              0 ****  ****    0 ROOT
