@<TRIPOS>MOLECULE
02A
   13    13     1     0     0
SMALL
bcc


@<TRIPOS>ATOM
      1 N25          1.2410     0.9030    -0.2600 n6         1 02A      -0.763200
      2 C28          0.2590    -0.1770    -0.4510 cy         1 02A       0.033500
      3 C29         -1.1870     0.0910    -0.0500 c          1 02A       0.941600
      4 O30         -1.5770     1.2730    -0.0380 o          1 02A      -0.835800
      5 C27          1.1230    -1.0850     0.4380 cy         1 02A      -0.087400
      6 C26          2.2510    -0.0800     0.1610 cy         1 02A       0.110800
      7 H28          0.2580    -0.5660    -1.4820 h1         1 02A       0.007700
      8 H271         0.7990    -1.0860     1.4800 hc         1 02A       0.042700
      9 H272         1.2780    -2.1130     0.1160 hc         1 02A       0.042700
     10 H261         2.9110    -0.4220    -0.6430 h1         1 02A       0.010200
     11 H262         2.8730     0.2310     1.0050 h1         1 02A       0.010200
     12 H2           1.4760     1.4200    -1.0980 hn         1 02A       0.323800
     13 OXT         -1.8650    -0.9280     0.2030 o          1 02A      -0.835800
@<TRIPOS>BOND
     1     1     2 1   
     2     1     6 1   
     3     1    12 1   
     4     2     3 1   
     5     2     5 1   
     6     2     7 1   
     7     3     4 1   
     8     3    13 1   
     9     5     6 1   
    10     5     8 1   
    11     5     9 1   
    12     6    10 1   
    13     6    11 1   
@<TRIPOS>SUBSTRUCTURE
     1 02A         1 TEMP              0 ****  ****    0 ROOT
