@<TRIPOS>MOLECULE
02A
   13    13     1     0     0
SMALL
No Charge or Current Charge


@<TRIPOS>ATOM
      1 N25          1.3690     0.9690    -0.3690 n6         1 02A      -0.818400
      2 C28          0.3240    -0.0850    -0.6940 cy         1 02A       0.033500
      3 C29         -1.1470    -0.1090    -0.0220 c          1 02A       0.731000
      4 O30         -1.6060     0.8520     0.5870 o          1 02A      -0.730500
      5 C27          0.9670    -0.8590     0.5240 cy         1 02A      -0.087400
      6 C26          2.2780    -0.1230     0.0970 cy         1 02A       0.110800
      7 H28          0.4260    -0.6080    -1.6530 h1         1 02A       0.007700
      8 H271         0.6320    -0.5880     1.5340 hc         1 02A       0.042700
      9 H272         0.9870    -1.9510     0.4420 hc         1 02A       0.042700
     10 H261         2.8250    -0.6410    -0.7000 h1         1 02A       0.010200
     11 H262         2.9570     0.1270     0.9200 h1         1 02A       0.010200
     12 H2           1.7150     1.5550    -1.1390 hn         1 02A       0.379000
     13 OXT         -1.8890    -1.0780    -0.1470 o          1 02A      -0.730500
@<TRIPOS>BOND
     1     1     2 1   
     2     1     6 1   
     3     1    12 1   
     4     2     3 1   
     5     2     5 1   
     6     2     7 1   
     7     3     4 1   
     8     3    13 1   
     9     5     6 1   
    10     5     8 1   
    11     5     9 1   
    12     6    10 1   
    13     6    11 1   
@<TRIPOS>SUBSTRUCTURE
     1 02A         1 TEMP              0 ****  ****    0 ROOT
