@<TRIPOS>MOLECULE
02B
   28    28     1     0     0
SMALL
abcg2


@<TRIPOS>ATOM
      1 S20          2.3650    -0.0590    -0.1470 s6         1 02B       1.256100
      2 O21          2.8350     0.3240     1.2000 o          1 02B      -0.695533
      3 O22          2.8250    -1.3980    -0.5480 o          1 02B      -0.695533
      4 C11          0.5610    -0.1050    -0.0320 ca         1 02B      -0.241500
      5 C12         -0.1330     1.1230     0.0240 ca         1 02B       0.052700
      6 C13         -1.5290     1.1490    -0.0170 ca         1 02B      -0.153300
      7 C14         -2.2280    -0.0640    -0.0220 ca         1 02B       0.144100
      8 C15         -1.5380    -1.2650     0.0050 ca         1 02B      -0.241000
      9 C16         -0.1460    -1.3130    -0.0040 ca         1 02B       0.046700
     10 C17          0.5700     2.4520     0.1540 c3         1 02B      -0.058800
     11 C18         -2.2870     2.4500    -0.0430 c3         1 02B      -0.023800
     12 C10          0.4600    -2.6920     0.0510 c3         1 02B      -0.044800
     13 O11         -3.5730     0.0130    -0.0300 os         1 02B      -0.357100
     14 C19         -4.3280    -1.1800    -0.0700 c3         1 02B       0.157900
     15 H151        -2.0790    -2.2020     0.0340 ha         1 02B       0.093000
     16 H171         0.7370     2.9170    -0.8190 hc         1 02B       0.050367
     17 H172        -0.0340     3.1400     0.7420 hc         1 02B       0.050367
     18 H173         1.5310     2.3730     0.6500 hc         1 02B       0.050367
     19 H181        -1.7950     3.1850    -0.6780 hc         1 02B       0.028367
     20 H182        -3.2970     2.3200    -0.4230 hc         1 02B       0.028367
     21 H183        -2.3730     2.8910     0.9530 hc         1 02B       0.028367
     22 H101         1.2080    -2.7880     0.8340 hc         1 02B       0.045700
     23 H102        -0.3250    -3.4210     0.2510 hc         1 02B       0.045700
     24 H103         0.9390    -2.9690    -0.8860 hc         1 02B       0.045700
     25 H191        -4.1070    -1.7760    -0.9590 h1         1 02B       0.028033
     26 H192        -4.1670    -1.8000     0.8160 h1         1 02B       0.028033
     27 H193        -5.3730    -0.8810    -0.1000 h1         1 02B       0.028033
     28 O1           2.6660     0.9490    -1.1810 o          1 02B      -0.695533
@<TRIPOS>BOND
     1     1     2 1   
     2     1     3 1   
     3     1     4 1   
     4     1    28 1   
     5     4     5 ar  
     6     4     9 ar  
     7     5     6 ar  
     8     5    10 1   
     9     6     7 ar  
    10     6    11 1   
    11     7     8 ar  
    12     7    13 1   
    13     8     9 ar  
    14     8    15 1   
    15     9    12 1   
    16    10    16 1   
    17    10    17 1   
    18    10    18 1   
    19    11    19 1   
    20    11    20 1   
    21    11    21 1   
    22    12    22 1   
    23    12    23 1   
    24    12    24 1   
    25    13    14 1   
    26    14    25 1   
    27    14    26 1   
    28    14    27 1   
@<TRIPOS>SUBSTRUCTURE
     1 02B         1 TEMP              0 ****  ****    0 ROOT
