@<TRIPOS>MOLECULE
02B
   28    28     1     0     0
SMALL
No Charge or Current Charge


@<TRIPOS>ATOM
      1 S20          2.4930    -0.0940    -0.2120 s6         1 02B       1.256100
      2 O21          2.8810     0.0130     1.2030 o          1 02B      -0.695533
      3 O22          2.8030    -1.3780    -0.8560 o          1 02B      -0.695533
      4 C11          0.6080    -0.0820    -0.0710 ca         1 02B      -0.241500
      5 C12         -0.1140     1.1560     0.0060 ca         1 02B       0.052700
      6 C13         -1.5380     1.1620    -0.0410 ca         1 02B      -0.153300
      7 C14         -2.2450    -0.0560    -0.0530 ca         1 02B       0.144100
      8 C15         -1.5410    -1.2660    -0.0070 ca         1 02B      -0.241000
      9 C16         -0.1370    -1.3000    -0.0050 ca         1 02B       0.046700
     10 C17          0.6080     2.5050     0.1870 c3         1 02B      -0.058800
     11 C18         -2.3260     2.4830    -0.0710 c3         1 02B      -0.023800
     12 C10          0.4890    -2.6910     0.1170 c3         1 02B      -0.044800
     13 O11         -3.6290    -0.0300    -0.0680 os         1 02B      -0.357100
     14 C19         -4.4330    -1.2230    -0.0770 c3         1 02B       0.157900
     15 H151        -2.0780    -2.2090     0.0250 ha         1 02B       0.093000
     16 H171         0.8520     2.9580    -0.7810 hc         1 02B       0.050367
     17 H172         0.0100     3.2300     0.7490 hc         1 02B       0.050367
     18 H173         1.5290     2.4120     0.7710 hc         1 02B       0.050367
     19 H181        -1.8440     3.2260    -0.7170 hc         1 02B       0.028367
     20 H182        -3.3420     2.3660    -0.4640 hc         1 02B       0.028367
     21 H183        -2.4110     2.9120     0.9350 hc         1 02B       0.028367
     22 H101         1.3280    -2.6990     0.8230 hc         1 02B       0.045700
     23 H102        -0.2290    -3.4270     0.4970 hc         1 02B       0.045700
     24 H103         0.8360    -3.0600    -0.8550 hc         1 02B       0.045700
     25 H191        -4.2130    -1.8340    -0.9620 h1         1 02B       0.028033
     26 H192        -4.2510    -1.8240     0.8230 h1         1 02B       0.028033
     27 H193        -5.4990    -0.9620    -0.1010 h1         1 02B       0.028033
     28 O1           2.7800     1.0870    -1.0390 o          1 02B      -0.695533
@<TRIPOS>BOND
     1     1     2 1   
     2     1     3 1   
     3     1     4 1   
     4     1    28 1   
     5     4     5 ar  
     6     4     9 ar  
     7     5     6 ar  
     8     5    10 1   
     9     6     7 ar  
    10     6    11 1   
    11     7     8 ar  
    12     7    13 1   
    13     8     9 ar  
    14     8    15 1   
    15     9    12 1   
    16    10    16 1   
    17    10    17 1   
    18    10    18 1   
    19    11    19 1   
    20    11    20 1   
    21    11    21 1   
    22    12    22 1   
    23    12    23 1   
    24    12    24 1   
    25    13    14 1   
    26    14    25 1   
    27    14    26 1   
    28    14    27 1   
@<TRIPOS>SUBSTRUCTURE
     1 02B         1 TEMP              0 ****  ****    0 ROOT
