@<TRIPOS>MOLECULE
02C
   18    18     1     0     0
SMALL
bcc


@<TRIPOS>ATOM
      1 C1          -0.5730     1.4460    -0.1050 cc         1 02C      -0.139400
      2 C2          -0.9620     0.1450    -0.0060 cd         1 02C       0.293000
      3 N3           0.0470    -0.7460     0.2200 nd         1 02C      -0.633000
      4 C4           1.1980    -0.1620     0.3000 cc         1 02C       0.433700
      5 S5           1.1160     1.5530     0.0970 ss         1 02C      -0.181300
      6 C6          -2.3640    -0.3250    -0.1100 cf         1 02C       0.599200
      7 C7           2.5060    -0.8670     0.4830 c3         1 02C       0.116500
      8 N8           3.0130    -1.3270    -0.8020 n8         1 02C      -0.869800
      9 N28         -3.2840     0.5450    -0.2870 n2         1 02C      -0.854100
     10 N29         -2.5060    -1.6700    -0.0310 nv         1 02C      -0.978800
     11 H1          -1.1900     2.3140    -0.2740 h4         1 02C       0.201000
     12 H71          3.1940    -0.2140     1.0330 h1         1 02C       0.050200
     13 H72          2.3220    -1.7350     1.1170 h1         1 02C       0.050200
     14 HN8          3.3420    -0.5350    -1.3390 hn         1 02C       0.341800
     15 HN28        -4.1990     0.1060    -0.3410 hn         1 02C       0.374400
     16 H291        -1.7290    -2.2290     0.2810 hn         1 02C       0.427300
     17 H292        -3.4230    -2.0640     0.0960 hn         1 02C       0.427300
     18 H2           3.8290    -1.9040    -0.6370 hn         1 02C       0.341800
@<TRIPOS>BOND
     1     1     2 2   
     2     1     5 1   
     3     1    11 1   
     4     2     3 1   
     5     2     6 1   
     6     3     4 2   
     7     4     5 1   
     8     4     7 1   
     9     6     9 2   
    10     6    10 1   
    11     7     8 1   
    12     7    12 1   
    13     7    13 1   
    14     8    14 1   
    15     8    18 1   
    16     9    15 1   
    17    10    16 1   
    18    10    17 1   
@<TRIPOS>SUBSTRUCTURE
     1 02C         1 TEMP              0 ****  ****    0 ROOT
