@<TRIPOS>MOLECULE
02C
   18    18     1     0     0
SMALL
No Charge or Current Charge


@<TRIPOS>ATOM
      1 C1          -0.5620     1.4210    -0.1050 cc         1 02C      -0.201000
      2 C2          -1.0020     0.1160    -0.0050 cd         1 02C       0.227700
      3 N3           0.0310    -0.8150     0.1940 nd         1 02C      -0.633000
      4 C4           1.2060    -0.1940     0.2300 cc         1 02C       0.433700
      5 S5           1.1680     1.5410     0.0420 ss         1 02C      -0.036400
      6 C6          -2.4460    -0.3040    -0.0910 cf         1 02C       0.599200
      7 C7           2.5370    -0.9140     0.4400 c3         1 02C       0.116500
      8 N8           3.2710    -1.3110    -0.8080 n8         1 02C      -0.980200
      9 N28         -3.4120     0.5190    -0.2280 n2         1 02C      -0.854100
     10 N29         -2.7290    -1.6090    -0.0100 nv         1 02C      -1.089200
     11 H1          -1.1530     2.3150    -0.2560 h4         1 02C       0.183000
     12 H71          3.1920    -0.2650     1.0370 h1         1 02C       0.050200
     13 H72          2.3500    -1.8210     1.0320 h1         1 02C       0.050200
     14 HN8          3.5460    -0.4680    -1.3290 hn         1 02C       0.397000
     15 HN28        -4.2550    -0.0190    -0.4620 hn         1 02C       0.374400
     16 H291        -1.9470    -2.2180     0.2160 hn         1 02C       0.482500
     17 H292        -3.6290    -1.9030     0.3520 hn         1 02C       0.482500
     18 H2           4.1700    -1.7410    -0.5520 hn         1 02C       0.397000
@<TRIPOS>BOND
     1     1     2 2   
     2     1     5 1   
     3     1    11 1   
     4     2     3 1   
     5     2     6 1   
     6     3     4 2   
     7     4     5 1   
     8     4     7 1   
     9     6     9 2   
    10     6    10 1   
    11     7     8 1   
    12     7    12 1   
    13     7    13 1   
    14     8    14 1   
    15     8    18 1   
    16     9    15 1   
    17    10    16 1   
    18    10    17 1   
@<TRIPOS>SUBSTRUCTURE
     1 02C         1 TEMP              0 ****  ****    0 ROOT
