@<TRIPOS>MOLECULE
02D
   19    19     1     0     0
SMALL
abcg2


@<TRIPOS>ATOM
      1 C1          -0.9510    -0.3310     0.0910 cc         1 02D      -0.274900
      2 C2          -0.4100    -1.5800    -0.0120 cd         1 02D      -0.076000
      3 C3           1.0020    -1.5800     0.1050 cd         1 02D      -0.126000
      4 C4           1.5260    -0.3360     0.3080 cc         1 02D      -0.196300
      5 S5           0.2790     0.8480     0.3540 ss         1 02D       0.197000
      6 C6          -2.3770     0.0300     0.0270 ce         1 02D       0.681800
      7 N7          -3.2410    -0.8630     0.3210 n2         1 02D      -0.813100
      8 N8          -2.6240     1.3370    -0.2960 nv         1 02D      -1.071200
      9 C9           2.9640     0.0610     0.4300 c3         1 02D       0.216100
     10 N10          3.4830     0.5430    -0.8450 n8         1 02D      -0.986200
     11 H2          -1.0070    -2.4650    -0.1780 ha         1 02D       0.152000
     12 H3           1.6140    -2.4690     0.0410 ha         1 02D       0.138000
     13 HN7         -4.1860    -0.5130     0.1870 hn         1 02D       0.370400
     14 HN81        -1.9960     1.7900    -0.9410 hn         1 02D       0.458500
     15 HN82        -3.5880     1.5900    -0.4500 hn         1 02D       0.458500
     16 H91          3.0760     0.7770     1.2540 h1         1 02D       0.041700
     17 H92          3.5280    -0.8280     0.7180 h1         1 02D       0.041700
     18 HN10         3.0390     1.4230    -1.0780 hn         1 02D       0.393500
     19 H1           4.4660     0.7590    -0.7320 hn         1 02D       0.393500
@<TRIPOS>BOND
     1     1     2 2   
     2     1     5 1   
     3     1     6 1   
     4     2     3 1   
     5     2    11 1   
     6     3     4 2   
     7     3    12 1   
     8     4     5 1   
     9     4     9 1   
    10     6     7 2   
    11     6     8 1   
    12     7    13 1   
    13     8    14 1   
    14     8    15 1   
    15     9    10 1   
    16     9    16 1   
    17     9    17 1   
    18    10    18 1   
    19    10    19 1   
@<TRIPOS>SUBSTRUCTURE
     1 02D         1 TEMP              0 ****  ****    0 ROOT
