@<TRIPOS>MOLECULE
02D
   19    19     1     0     0
SMALL
No Charge or Current Charge


@<TRIPOS>ATOM
      1 C1          -1.0030    -0.2900     0.0260 cc         1 02D      -0.274900
      2 C2          -0.3640    -1.4940    -0.1710 cd         1 02D      -0.076000
      3 C3           1.0500    -1.4270    -0.0480 cd         1 02D      -0.126000
      4 C4           1.5190    -0.1710     0.2420 cc         1 02D      -0.196300
      5 S5           0.1840     0.9690     0.3850 ss         1 02D       0.197000
      6 C6          -2.4290    -0.0090    -0.0220 ce         1 02D       0.681800
      7 N7          -3.2770    -0.9220    -0.2490 n2         1 02D      -0.813100
      8 N8          -2.8820     1.2430     0.1820 nv         1 02D      -1.071200
      9 C9           2.9400     0.2650     0.4610 c3         1 02D       0.216100
     10 N10          3.7670    -0.0550    -0.7130 n8         1 02D      -0.986200
     11 H2          -0.8920    -2.4160    -0.4000 ha         1 02D       0.152000
     12 H3           1.6990    -2.2890    -0.1720 ha         1 02D       0.138000
     13 HN7         -4.2020    -0.5590     0.0020 hn         1 02D       0.370400
     14 HN81        -2.1760     1.9670     0.1470 hn         1 02D       0.458500
     15 HN82        -3.7670     1.4770    -0.2510 hn         1 02D       0.458500
     16 H91          2.9750     1.3500     0.6390 h1         1 02D       0.041700
     17 H92          3.3520    -0.2450     1.3430 h1         1 02D       0.041700
     18 HN10         3.3980     0.4590    -1.5200 hn         1 02D       0.393500
     19 H1           4.7040     0.3410    -0.5760 hn         1 02D       0.393500
@<TRIPOS>BOND
     1     1     2 2   
     2     1     5 1   
     3     1     6 1   
     4     2     3 1   
     5     2    11 1   
     6     3     4 2   
     7     3    12 1   
     8     4     5 1   
     9     4     9 1   
    10     6     7 2   
    11     6     8 1   
    12     7    13 1   
    13     8    14 1   
    14     8    15 1   
    15     9    10 1   
    16     9    16 1   
    17     9    17 1   
    18    10    18 1   
    19    10    19 1   
@<TRIPOS>SUBSTRUCTURE
     1 02D         1 TEMP              0 ****  ****    0 ROOT
