@<TRIPOS>MOLECULE
02F
   23    22     1     0     0
SMALL
No Charge or Current Charge


@<TRIPOS>ATOM
      1 P           -1.9500    -0.6240     0.0040 p5         1 02F       1.298500
      2 C1           4.9950    -0.2840    -0.2270 c3         1 02F       0.158900
      3 C2           2.7370     0.5680    -0.2560 c3         1 02F       0.156600
      4 O2           3.6330    -0.4620     0.1890 os         1 02F      -0.449000
      5 C4           0.2690     1.2810    -0.1400 c3         1 02F      -0.045400
      6 C5          -1.1500     1.0740     0.4700 c3         1 02F      -0.151500
      7 N6          -1.9200     2.3700     0.2920 n8         1 02F      -0.957200
      8 OP1         -1.7350    -0.8980    -1.4480 o          1 02F      -0.929500
      9 OP2         -1.3410    -1.7100     0.8280 o          1 02F      -0.929500
     10 OP3         -3.4180    -0.5660     0.2810 o          1 02F      -0.929500
     11 H1           5.3990     0.6600     0.1620 h1         1 02F       0.002367
     12 H1A          5.6180    -1.1050     0.1490 h1         1 02F       0.002367
     13 H1B          5.0670    -0.2700    -1.3220 h1         1 02F       0.002367
     14 H2           3.0520     1.5460     0.1310 h1         1 02F      -0.001300
     15 H2A          2.7190     0.6160    -1.3530 h1         1 02F      -0.001300
     16 H3           1.0450    -0.7550    -0.1130 hc         1 02F       0.078200
     17 H3A          1.3660     0.1590     1.3640 hc         1 02F       0.078200
     18 H4           0.6450     2.2670     0.1640 hc         1 02F      -0.008300
     19 H4A          0.1960     1.3050    -1.2350 hc         1 02F      -0.008300
     20 H5          -1.0060     0.9740     1.5530 h1         1 02F       0.024700
     21 HN6         -1.2940     3.1660     0.4550 hn         1 02F       0.348000
     22 H6          -2.1980     2.4660    -0.6920 hn         1 02F       0.348000
     23 C3           1.3290     0.2310     0.2700 c3         1 02F      -0.087400
@<TRIPOS>BOND
     1     1     6 1   
     2     1     8 1   
     3     1     9 1   
     4     1    10 1   
     5     2     4 1   
     6     2    11 1   
     7     2    12 1   
     8     2    13 1   
     9     3     4 1   
    10     3    14 1   
    11     3    15 1   
    12     3    23 1   
    13     5     6 1   
    14     5    18 1   
    15     5    19 1   
    16     5    23 1   
    17     6     7 1   
    18     6    20 1   
    19     7    21 1   
    20     7    22 1   
    21    16    23 1   
    22    17    23 1   
@<TRIPOS>SUBSTRUCTURE
     1 02F         1 TEMP              0 ****  ****    0 ROOT
