@<TRIPOS>MOLECULE
02F
   23    22     1     0     0
SMALL
bcc


@<TRIPOS>ATOM
      1 P           -2.0330    -0.4630    -0.1110 p5         1 02F       1.140700
      2 C1           4.9770    -0.2030    -0.1740 c3         1 02F       0.135700
      3 C2           2.7390     0.4810    -0.1980 c3         1 02F       0.133400
      4 O2           3.6880    -0.4130     0.3360 os         1 02F      -0.402600
      5 C4           0.3190     1.1590    -0.1460 c3         1 02F      -0.045400
      6 C5          -1.0700     1.0310     0.4910 c3         1 02F       0.006300
      7 N6          -1.8960     2.2160     0.2470 n8         1 02F      -0.846800
      8 OP1         -2.3420    -0.1160    -1.5790 o          1 02F      -0.929500
      9 OP2         -1.1090    -1.6810     0.0470 o          1 02F      -0.929500
     10 OP3         -3.2790    -0.5380     0.7790 o          1 02F      -0.929500
     11 H1           5.3530     0.8030     0.0530 h1         1 02F       0.002367
     12 H1A          5.6480    -0.9300     0.2840 h1         1 02F       0.002367
     13 H1B          5.0190    -0.3350    -1.2620 h1         1 02F       0.002367
     14 H2           3.0400     1.5210     0.0050 h1         1 02F      -0.001300
     15 H2A          2.6930     0.3800    -1.2940 h1         1 02F      -0.001300
     16 H3           1.0660    -0.8180     0.2050 hc         1 02F       0.078200
     17 H3A          1.4350     0.3230     1.4920 hc         1 02F       0.078200
     18 H4           0.6750     2.1890     0.0040 hc         1 02F      -0.008300
     19 H4A          0.2250     1.0300    -1.2300 hc         1 02F      -0.008300
     20 H5          -0.9270     0.9400     1.5780 h1         1 02F       0.024700
     21 HN6         -1.3240     3.0510     0.3100 hn         1 02F       0.292800
     22 H6          -2.2150     2.1720    -0.7150 hn         1 02F       0.292800
     23 C3           1.3760     0.2080     0.4030 c3         1 02F      -0.087400
@<TRIPOS>BOND
     1     1     6 1   
     2     1     8 1   
     3     1     9 1   
     4     1    10 1   
     5     2     4 1   
     6     2    11 1   
     7     2    12 1   
     8     2    13 1   
     9     3     4 1   
    10     3    14 1   
    11     3    15 1   
    12     3    23 1   
    13     5     6 1   
    14     5    18 1   
    15     5    19 1   
    16     5    23 1   
    17     6     7 1   
    18     6    20 1   
    19     7    21 1   
    20     7    22 1   
    21    16    23 1   
    22    17    23 1   
@<TRIPOS>SUBSTRUCTURE
     1 02F         1 TEMP              0 ****  ****    0 ROOT
