@<TRIPOS>MOLECULE
02G
   22    21     1     0     0
SMALL
No Charge or Current Charge


@<TRIPOS>ATOM
      1 C2          -2.4690     0.5570    -0.5680 c3         1 02G      -0.236400
      2 C7           3.4800    -0.1420     0.5340 c3         1 02G       0.099600
      3 C6           2.5110    -0.3070    -0.6520 c3         1 02G      -0.025200
      4 C5           1.1130    -0.6930    -0.2070 c2         1 02G      -0.277200
      5 C4           0.0110     0.0610    -0.3610 c2         1 02G      -0.206200
      6 C3          -1.3860    -0.3340     0.0750 c3         1 02G       0.204500
      7 C1          -3.8610    -0.0290    -0.3020 c          1 02G       0.724000
      8 O2          -1.4470    -0.2230     1.4950 oh         1 02G      -0.647000
      9 O1          -4.2640    -0.9040    -1.0540 o          1 02G      -0.733000
     10 S            5.2000     0.3270     0.0200 sh         1 02G      -0.491800
     11 H01         -2.3690     1.5610    -0.1360 hc         1 02G       0.021700
     12 H01A        -2.2580     0.5210    -1.6440 hc         1 02G       0.021700
     13 H02          3.0970     0.6340     1.2090 h1         1 02G       0.059200
     14 H02A         3.5320    -1.0840     1.0950 h1         1 02G       0.059200
     15 H03          2.4870     0.6330    -1.2180 hc         1 02G       0.048700
     16 H03A         2.9070    -1.0700    -1.3330 hc         1 02G       0.048700
     17 H04          1.0460    -1.6750     0.2690 ha         1 02G       0.172000
     18 H05          0.0780     1.0400    -0.8390 ha         1 02G       0.161000
     19 H06         -1.5670    -1.3750    -0.2360 h1         1 02G       0.100700
     20 HS30         5.7190     0.3750     1.2730 hs         1 02G       0.205800
     21 H2          -1.1100     0.6710     1.7130 ho         1 02G       0.424000
     22 OXT         -4.5070     0.4010     0.6410 o          1 02G      -0.733000
@<TRIPOS>BOND
     1     1     6 1   
     2     1     7 1   
     3     1    11 1   
     4     1    12 1   
     5     2     3 1   
     6     2    10 1   
     7     2    13 1   
     8     2    14 1   
     9     3     4 1   
    10     3    15 1   
    11     3    16 1   
    12     4     5 2   
    13     4    17 1   
    14     5     6 1   
    15     5    18 1   
    16     6     8 1   
    17     6    19 1   
    18     7     9 1   
    19     7    22 1   
    20     8    21 1   
    21    10    20 1   
@<TRIPOS>SUBSTRUCTURE
     1 02G         1 TEMP              0 ****  ****    0 ROOT
