@<TRIPOS>MOLECULE
02G
   22    21     1     0     0
SMALL
bcc


@<TRIPOS>ATOM
      1 C2          -2.1450     0.6880    -0.2170 c3         1 02G      -0.236400
      2 C7           3.2330     0.2370     0.5700 c3         1 02G       0.051700
      3 C6           2.5130    -0.5450    -0.5240 c3         1 02G      -0.025200
      4 C5           1.1040    -0.8530    -0.1210 c2         1 02G      -0.227200
      5 C4           0.0300    -0.3910    -0.7530 c2         1 02G      -0.156200
      6 C3          -1.4010    -0.6340    -0.3640 c3         1 02G       0.181300
      7 C1          -3.6580     0.5310     0.0180 c          1 02G       0.934600
      8 O2          -1.5300    -1.4320     0.7910 oh         1 02G      -0.584800
      9 O1          -4.2360    -0.3690    -0.6230 o          1 02G      -0.838300
     10 S            4.9430     0.5780     0.0320 sh         1 02G      -0.443900
     11 H01         -1.6880     1.2800     0.5840 hc         1 02G       0.021700
     12 H01A        -2.0070     1.2730    -1.1340 hc         1 02G       0.021700
     13 H02          2.7180     1.1780     0.7620 h1         1 02G       0.059200
     14 H02A         3.2550    -0.3370     1.4970 h1         1 02G       0.059200
     15 H03          2.5220     0.0270    -1.4560 hc         1 02G       0.048700
     16 H03A         3.0580    -1.4750    -0.7140 hc         1 02G       0.048700
     17 H04          0.9870    -1.4880     0.7530 ha         1 02G       0.122000
     18 H05          0.1650     0.2390    -1.6300 ha         1 02G       0.111000
     19 H06         -1.8850    -1.1990    -1.1680 h1         1 02G       0.100700
     20 HS30         5.3540     1.2240     1.1280 hs         1 02G       0.205800
     21 H2          -1.1980    -0.9270     1.5410 ho         1 02G       0.385000
     22 OXT         -4.1910     1.3420     0.8020 o          1 02G      -0.838300
@<TRIPOS>BOND
     1     1     6 1   
     2     1     7 1   
     3     1    11 1   
     4     1    12 1   
     5     2     3 1   
     6     2    10 1   
     7     2    13 1   
     8     2    14 1   
     9     3     4 1   
    10     3    15 1   
    11     3    16 1   
    12     4     5 2   
    13     4    17 1   
    14     5     6 1   
    15     5    18 1   
    16     6     8 1   
    17     6    19 1   
    18     7     9 1   
    19     7    22 1   
    20     8    21 1   
    21    10    20 1   
@<TRIPOS>SUBSTRUCTURE
     1 02G         1 TEMP              0 ****  ****    0 ROOT
