@<TRIPOS>MOLECULE
02H
   54    56     1     0     0
SMALL
bcc


@<TRIPOS>ATOM
      1 N1          -0.1140     1.3610     0.9590 n8         1 02H      -0.890800
      2 C4           2.5620     0.1500     0.5470 c3         1 02H      -0.108400
      3 C5          -0.7990     0.6360    -1.3540 c3         1 02H      -0.072100
      4 C7           4.0200     0.1190     0.0900 c3         1 02H       0.158500
      5 C8           4.9300    -0.4910     1.1680 c3         1 02H      -0.067100
      6 C10          7.3010     0.3560     1.0430 ca         1 02H      -0.129000
      7 C13          8.0550    -1.7660    -0.5700 ca         1 02H      -0.124500
      8 C15         -2.2390     0.4090    -1.0020 ca         1 02H      -0.074300
      9 C17         -4.0970    -1.1030    -0.6450 ca         1 02H      -0.113000
     10 C20         -3.0650     1.4600    -0.6090 ca         1 02H      -0.130500
     11 C2           0.1350     0.4440    -0.1390 c3         1 02H       0.169500
     12 C3           1.5970     0.5230    -0.5780 c3         1 02H       0.172100
     13 N6           4.4210     1.4620    -0.3310 n8         1 02H      -0.907800
     14 C9           6.3550    -0.6110     0.7100 ca         1 02H      -0.088300
     15 C11          8.6090     0.2660     0.5800 ca         1 02H      -0.124500
     16 C12          8.9890    -0.7950    -0.2300 ca         1 02H      -0.127000
     17 C14          6.7510    -1.6710    -0.1040 ca         1 02H      -0.129000
     18 C16         -2.7800    -0.8760    -1.0080 ca         1 02H      -0.130500
     19 C18         -4.9240    -0.0470    -0.2580 cp         1 02H      -0.038000
     20 C19         -4.3840     1.2390    -0.2440 ca         1 02H      -0.113000
     21 C44         -6.3290    -0.2850     0.1140 cp         1 02H      -0.148300
     22 C45         -7.1020    -1.2290    -0.5670 ca         1 02H       0.410200
     23 N46         -8.3680    -1.4990    -0.2830 nb         1 02H      -0.666000
     24 C47         -8.9430    -0.8260     0.7080 ca         1 02H       0.400200
     25 C48         -8.2780     0.1410     1.4470 ca         1 02H      -0.247300
     26 C49         -6.9540     0.4120     1.1460 ca         1 02H      -0.084000
     27 O51          1.8480     1.8140    -1.0860 oh         1 02H      -0.636800
     28 HN1         -0.0350     2.3150     0.6280 hn         1 02H       0.346800
     29 H4           2.2880    -0.8390     0.9240 hc         1 02H       0.059700
     30 H4A          2.4490     0.8480     1.3840 hc         1 02H       0.059700
     31 H5          -0.5010    -0.0600    -2.1440 hc         1 02H       0.061700
     32 H5A         -0.6660     1.6450    -1.7510 hc         1 02H       0.061700
     33 H7           4.0820    -0.5190    -0.7990 h1         1 02H       0.059700
     34 H8           4.8770     0.1260     2.0700 hc         1 02H       0.055700
     35 H8A          4.5410    -1.4780     1.4330 hc         1 02H       0.055700
     36 H13          8.3430    -2.6000    -1.1980 ha         1 02H       0.132000
     37 H17         -4.4780    -2.1160    -0.6470 ha         1 02H       0.133000
     38 H20         -2.6770     2.4720    -0.6050 ha         1 02H       0.131500
     39 H2          -0.0250    -0.5730     0.2370 h1         1 02H       0.052700
     40 H3           1.7260    -0.2340    -1.3730 h1         1 02H       0.017700
     41 HN6          4.5420     2.0590     0.4810 hn         1 02H       0.353800
     42 H11          9.3300     1.0250     0.8540 ha         1 02H       0.132000
     43 H12         10.0070    -0.8680    -0.5910 ha         1 02H       0.132000
     44 H14          6.0300    -2.4350    -0.3740 ha         1 02H       0.128500
     45 H16         -2.1600    -1.7160    -1.3010 ha         1 02H       0.131500
     46 H19         -5.0040     2.0840     0.0320 ha         1 02H       0.133000
     47 H45         -6.6700    -1.7820    -1.3950 h4         1 02H       0.021100
     48 H47         -9.9780    -1.0650     0.9220 h4         1 02H       0.019100
     49 H48         -8.7860     0.6610     2.2470 ha         1 02H       0.142000
     50 H49         -6.4050     1.1470     1.7220 ha         1 02H       0.138000
     51 HO51         2.8220     1.9380    -1.0210 ho         1 02H       0.450000
     52 H1          -1.0620     1.2550     1.2960 hn         1 02H       0.346800
     53 H6           5.3150     1.4410    -0.8080 hn         1 02H       0.353800
     54 H10          7.0150     1.1860     1.6780 ha         1 02H       0.128500
@<TRIPOS>BOND
     1     1    11 1   
     2     1    28 1   
     3     1    52 1   
     4     2     4 1   
     5     2    12 1   
     6     2    29 1   
     7     2    30 1   
     8     3     8 1   
     9     3    11 1   
    10     3    31 1   
    11     3    32 1   
    12     4     5 1   
    13     4    13 1   
    14     4    33 1   
    15     5    14 1   
    16     5    34 1   
    17     5    35 1   
    18     6    14 ar  
    19     6    15 ar  
    20     6    54 1   
    21     7    16 ar  
    22     7    17 ar  
    23     7    36 1   
    24     8    10 ar  
    25     8    18 ar  
    26     9    18 ar  
    27     9    19 ar  
    28     9    37 1   
    29    10    20 ar  
    30    10    38 1   
    31    11    12 1   
    32    11    39 1   
    33    12    27 1   
    34    12    40 1   
    35    13    41 1   
    36    13    53 1   
    37    14    17 ar  
    38    15    16 ar  
    39    15    42 1   
    40    16    43 1   
    41    17    44 1   
    42    18    45 1   
    43    19    20 ar  
    44    19    21 1   
    45    20    46 1   
    46    21    22 ar  
    47    21    26 ar  
    48    22    23 ar  
    49    22    47 1   
    50    23    24 ar  
    51    24    25 ar  
    52    24    48 1   
    53    25    26 ar  
    54    25    49 1   
    55    26    50 1   
    56    27    51 1   
@<TRIPOS>SUBSTRUCTURE
     1 02H         1 TEMP              0 ****  ****    0 ROOT
