@<TRIPOS>MOLECULE
02H
   54    56     1     0     0
SMALL
No Charge or Current Charge


@<TRIPOS>ATOM
      1 N1          -0.2240     1.1450     0.9720 n8         1 02H      -1.001200
      2 C4           2.6260    -0.1010     0.4490 c3         1 02H      -0.108400
      3 C5          -0.8790     0.5000    -1.3330 c3         1 02H      -0.072100
      4 C7           4.1090     0.0190     0.0160 c3         1 02H       0.158500
      5 C8           5.0750    -0.6630     1.0160 c3         1 02H      -0.067100
      6 C10          7.4590     0.1850     1.3340 ca         1 02H      -0.111000
      7 C13          8.3390    -1.2300    -0.9280 ca         1 02H      -0.106500
      8 C15         -2.3440     0.3170    -0.9420 ca         1 02H      -0.074300
      9 C17         -4.1950    -1.1390    -0.3010 ca         1 02H      -0.095000
     10 C20         -3.2090     1.4240    -0.8690 ca         1 02H      -0.112500
     11 C2           0.1120     0.2530    -0.1650 c3         1 02H       0.169500
     12 C3           1.6120     0.3870    -0.6170 c3         1 02H       0.195300
     13 N6           4.4830     1.4380    -0.1640 n8         1 02H      -1.018200
     14 C9           6.5410    -0.5870     0.5940 ca         1 02H      -0.088300
     15 C11          8.8080     0.2510     0.9420 ca         1 02H      -0.106500
     16 C12          9.2480    -0.4560    -0.1890 ca         1 02H      -0.109000
     17 C14          6.9900    -1.2960    -0.5370 ca         1 02H      -0.111000
     18 C16         -2.8470    -0.9660    -0.6590 ca         1 02H      -0.112500
     19 C18         -5.0790    -0.0340    -0.2170 cp         1 02H      -0.038000
     20 C19         -4.5560     1.2500    -0.5100 ca         1 02H      -0.095000
     21 C44         -6.5170    -0.2190     0.1630 cp         1 02H      -0.083000
     22 C45         -7.2320    -1.3990    -0.1800 ca         1 02H       0.344900
     23 N46         -8.5310    -1.6210     0.1340 nb         1 02H      -0.666000
     24 C47         -9.1850    -0.6570     0.8210 ca         1 02H       0.334900
     25 C48         -8.5760     0.5450     1.2110 ca         1 02H      -0.164000
     26 C49         -7.2300     0.7720     0.8820 ca         1 02H      -0.066000
     27 O51          1.9380     1.7450    -0.9330 oh         1 02H      -0.699000
     28 HN1          0.1850     2.0620     0.7580 hn         1 02H       0.402000
     29 H4           2.4070    -1.1540     0.6680 hc         1 02H       0.059700
     30 H4A          2.4760     0.4470     1.3870 hc         1 02H       0.059700
     31 H5          -0.6350    -0.1920    -2.1490 hc         1 02H       0.061700
     32 H5A         -0.7160     1.5060    -1.7400 hc         1 02H       0.061700
     33 H7           4.2130    -0.4840    -0.9570 h1         1 02H       0.059700
     34 H8           4.9380    -0.2180     2.0100 hc         1 02H       0.055700
     35 H8A          4.7870    -1.7160     1.1190 hc         1 02H       0.055700
     36 H13          8.6780    -1.7800    -1.8040 ha         1 02H       0.114000
     37 H17         -4.5500    -2.1410    -0.0740 ha         1 02H       0.115000
     38 H20         -2.8400     2.4230    -1.0930 ha         1 02H       0.113500
     39 H2          -0.0460    -0.7820     0.1720 h1         1 02H       0.052700
     40 H3           1.7530    -0.2370    -1.5090 h1         1 02H       0.017700
     41 HN6          4.6540     1.8460     0.7640 hn         1 02H       0.409000
     42 H11          9.5120     0.8500     1.5170 ha         1 02H       0.114000
     43 H12         10.2920    -0.4050    -0.4920 ha         1 02H       0.114000
     44 H14          6.2940    -1.9010    -1.1140 ha         1 02H       0.110500
     45 H16         -2.1920    -1.8330    -0.7130 ha         1 02H       0.113500
     46 H19         -5.2040     2.1230    -0.4750 ha         1 02H       0.115000
     47 H45         -6.7450    -2.1940    -0.7440 h4         1 02H       0.021100
     48 H47        -10.2280    -0.8570     1.0650 h4         1 02H       0.019100
     49 H48         -9.1450     1.2870     1.7650 ha         1 02H       0.124000
     50 H49         -6.7460     1.6950     1.1920 ha         1 02H       0.120000
     51 HO51         2.9170     1.7860    -0.7110 ho         1 02H       0.489000
     52 H1          -1.2340     1.3190     0.9430 hn         1 02H       0.402000
     53 H6           5.4240     1.4610    -0.5800 hn         1 02H       0.409000
     54 H10          7.1300     0.7360     2.2120 ha         1 02H       0.110500
@<TRIPOS>BOND
     1     1    11 1   
     2     1    28 1   
     3     1    52 1   
     4     2     4 1   
     5     2    12 1   
     6     2    29 1   
     7     2    30 1   
     8     3     8 1   
     9     3    11 1   
    10     3    31 1   
    11     3    32 1   
    12     4     5 1   
    13     4    13 1   
    14     4    33 1   
    15     5    14 1   
    16     5    34 1   
    17     5    35 1   
    18     6    14 ar  
    19     6    15 ar  
    20     6    54 1   
    21     7    16 ar  
    22     7    17 ar  
    23     7    36 1   
    24     8    10 ar  
    25     8    18 ar  
    26     9    18 ar  
    27     9    19 ar  
    28     9    37 1   
    29    10    20 ar  
    30    10    38 1   
    31    11    12 1   
    32    11    39 1   
    33    12    27 1   
    34    12    40 1   
    35    13    41 1   
    36    13    53 1   
    37    14    17 ar  
    38    15    16 ar  
    39    15    42 1   
    40    16    43 1   
    41    17    44 1   
    42    18    45 1   
    43    19    20 ar  
    44    19    21 1   
    45    20    46 1   
    46    21    22 ar  
    47    21    26 ar  
    48    22    23 ar  
    49    22    47 1   
    50    23    24 ar  
    51    24    25 ar  
    52    24    48 1   
    53    25    26 ar  
    54    25    49 1   
    55    26    50 1   
    56    27    51 1   
@<TRIPOS>SUBSTRUCTURE
     1 02H         1 TEMP              0 ****  ****    0 ROOT
