@<TRIPOS>MOLECULE
02J
   13    13     1     0     0
SMALL
bcc


@<TRIPOS>ATOM
      1 C4          -0.6580     0.9340     0.0980 cc         1 02J      -0.345600
      2 C5          -1.8120     0.2350    -0.0080 cd         1 02J       0.215000
      3 C6          -3.2430     0.6170     0.0220 c3         1 02J      -0.114400
      4 O1          -1.5180    -1.0610    -0.1750 os         1 02J      -0.174100
      5 N2          -0.1650    -1.2350    -0.1820 nd         1 02J      -0.355300
      6 C3           0.3550    -0.0520    -0.0200 cc         1 02J       0.270800
      7 C41          1.8570     0.1630     0.0250 c          1 02J       0.838100
      8 O42          2.2070     1.3420     0.2040 o          1 02J      -0.805800
      9 H4          -0.5370     1.9940     0.2370 ha         1 02J       0.163000
     10 H6          -3.7430     0.3540    -0.9110 hc         1 02J       0.038033
     11 H6A         -3.7700     0.1160     0.8340 hc         1 02J       0.038033
     12 H6B         -3.3350     1.6910     0.1670 hc         1 02J       0.038033
     13 OXT          2.5690    -0.8430    -0.1180 o          1 02J      -0.805800
@<TRIPOS>BOND
     1     1     2 2   
     2     1     6 1   
     3     1     9 1   
     4     2     3 1   
     5     2     4 1   
     6     3    10 1   
     7     3    11 1   
     8     3    12 1   
     9     4     5 1   
    10     5     6 2   
    11     6     7 1   
    12     7     8 1   
    13     7    13 1   
@<TRIPOS>SUBSTRUCTURE
     1 02J         1 TEMP              0 ****  ****    0 ROOT
