@<TRIPOS>MOLECULE
02J
   13    13     1     0     0
SMALL
No Charge or Current Charge


@<TRIPOS>ATOM
      1 C4          -0.6540     0.8480     0.0870 cc         1 02J      -0.197000
      2 C5          -1.8250     0.1760    -0.0190 cd         1 02J       0.105300
      3 C6          -3.2440     0.6650     0.0290 c3         1 02J      -0.114400
      4 O1          -1.5760    -1.1580    -0.1950 os         1 02J      -0.129700
      5 N2          -0.1480    -1.3570    -0.2040 nd         1 02J      -0.355300
      6 C3           0.3570    -0.1330    -0.0330 cc         1 02J       0.205500
      7 C41          1.8280     0.2160     0.0330 c          1 02J       0.627500
      8 O42          2.1590     1.3860     0.1940 o          1 02J      -0.700500
      9 H4          -0.5060     1.9120     0.2310 ha         1 02J       0.145000
     10 H6          -3.7690     0.4340    -0.9050 hc         1 02J       0.038033
     11 H6A         -3.7930     0.1930     0.8520 hc         1 02J       0.038033
     12 H6B         -3.2840     1.7510     0.1780 hc         1 02J       0.038033
     13 OXT          2.6630    -0.6760    -0.0770 o          1 02J      -0.700500
@<TRIPOS>BOND
     1     1     2 2   
     2     1     6 1   
     3     1     9 1   
     4     2     3 1   
     5     2     4 1   
     6     3    10 1   
     7     3    11 1   
     8     3    12 1   
     9     4     5 1   
    10     5     6 2   
    11     6     7 1   
    12     7     8 1   
    13     7    13 1   
@<TRIPOS>SUBSTRUCTURE
     1 02J         1 TEMP              0 ****  ****    0 ROOT
