@<TRIPOS>MOLECULE
02N
   20    20     1     0     0
SMALL
No Charge or Current Charge


@<TRIPOS>ATOM
      1 C20          2.4570     0.0060    -0.4790 c3         1 02N       0.199100
      2 C21          0.9460    -0.0010    -0.2910 ca         1 02N      -0.091300
      3 C22          0.2450    -1.2200    -0.1870 ca         1 02N      -0.098000
      4 C24         -1.8640    -0.0130     0.0420 ca         1 02N      -0.076300
      5 C26          0.2300     1.2110    -0.2290 ca         1 02N      -0.098000
      6 N16          3.1610     0.1380     0.8100 n8         1 02N      -1.000200
      7 C23         -1.1510    -1.2250    -0.0220 ca         1 02N      -0.114000
      8 C27         -3.3750    -0.0190     0.2170 c3         1 02N      -0.045800
      9 C25         -1.1660     1.2040    -0.0650 ca         1 02N      -0.114000
     10 H20          2.7760    -0.9280    -0.9630 h1         1 02N       0.033700
     11 H20A         2.7480     0.8420    -1.1290 h1         1 02N       0.033700
     12 H22          0.7830    -2.1640    -0.2350 ha         1 02N       0.118000
     13 H26          0.7580     2.1580    -0.3090 ha         1 02N       0.118000
     14 HN16         2.9300    -0.6750     1.3930 hn         1 02N       0.396500
     15 H23         -1.6790    -2.1730     0.0550 ha         1 02N       0.109500
     16 H27         -3.8800    -0.0410    -0.7560 hc         1 02N       0.041033
     17 H27A        -3.7080    -0.8950     0.7870 hc         1 02N       0.041033
     18 H27B        -3.7200     0.8720     0.7540 hc         1 02N       0.041033
     19 H25         -1.7050     2.1480    -0.0200 ha         1 02N       0.109500
     20 H2           4.1710     0.0420     0.6470 hn         1 02N       0.396500
@<TRIPOS>BOND
     1     1     2 1   
     2     1     6 1   
     3     1    10 1   
     4     1    11 1   
     5     2     3 ar  
     6     2     5 ar  
     7     3     7 ar  
     8     3    12 1   
     9     4     7 ar  
    10     4     8 1   
    11     4     9 ar  
    12     5     9 ar  
    13     5    13 1   
    14     6    14 1   
    15     6    20 1   
    16     7    15 1   
    17     8    16 1   
    18     8    17 1   
    19     8    18 1   
    20     9    19 1   
@<TRIPOS>SUBSTRUCTURE
     1 02N         1 TEMP              0 ****  ****    0 ROOT
