@<TRIPOS>MOLECULE
02N
   20    20     1     0     0
SMALL
abcg2


@<TRIPOS>ATOM
      1 C20          2.4370    -0.2770    -0.3800 c3         1 02N       0.199100
      2 C21          0.9420    -0.1830    -0.2030 ca         1 02N      -0.091300
      3 C22          0.1370    -1.2910    -0.4560 ca         1 02N      -0.098000
      4 C24         -1.8700    -0.0360     0.0490 ca         1 02N      -0.076300
      5 C26          0.3190     0.9980     0.1880 ca         1 02N      -0.098000
      6 N16          3.1550     0.6960     0.4240 n8         1 02N      -1.000200
      7 C23         -1.2430    -1.2200    -0.3360 ca         1 02N      -0.114000
      8 C27         -3.3660     0.0490     0.1580 c3         1 02N      -0.045800
      9 C25         -1.0630     1.0670     0.3130 ca         1 02N      -0.114000
     10 H20          2.7430    -1.3160    -0.1970 h1         1 02N       0.033700
     11 H20A         2.6760    -0.0790    -1.4290 h1         1 02N       0.033700
     12 H22          0.5950    -2.2300    -0.7480 ha         1 02N       0.118000
     13 H26          0.9210     1.8700     0.4070 ha         1 02N       0.118000
     14 HN16         3.0830     0.4490     1.4030 hn         1 02N       0.396500
     15 H23         -1.8400    -2.1020    -0.5380 ha         1 02N       0.109500
     16 H27         -3.8160     0.3070    -0.8030 hc         1 02N       0.041033
     17 H27A        -3.8000    -0.9000     0.4720 hc         1 02N       0.041033
     18 H27B        -3.6720     0.8120     0.8730 hc         1 02N       0.041033
     19 H25         -1.5190     1.9990     0.6270 ha         1 02N       0.109500
     20 H2           4.1390     0.6550     0.1960 hn         1 02N       0.396500
@<TRIPOS>BOND
     1     1     2 1   
     2     1     6 1   
     3     1    10 1   
     4     1    11 1   
     5     2     3 ar  
     6     2     5 ar  
     7     3     7 ar  
     8     3    12 1   
     9     4     7 ar  
    10     4     8 1   
    11     4     9 ar  
    12     5     9 ar  
    13     5    13 1   
    14     6    14 1   
    15     6    20 1   
    16     7    15 1   
    17     8    16 1   
    18     8    17 1   
    19     8    18 1   
    20     9    19 1   
@<TRIPOS>SUBSTRUCTURE
     1 02N         1 TEMP              0 ****  ****    0 ROOT
