@<TRIPOS>MOLECULE
02P
   54    56     1     0     0
SMALL
abcg2


@<TRIPOS>ATOM
      1 N10         -3.8020    -1.4320     1.4900 n8         1 02P      -0.970200
      2 C8          -3.4910    -0.3750     0.5590 c3         1 02P       0.106500
      3 C9          -2.0100    -0.3140     0.1790 c          1 02P       0.566100
      4 O12         -1.3130    -1.3220     0.1920 o          1 02P      -0.628100
      5 C7          -4.2940    -0.5580    -0.7430 c3         1 02P      -0.020100
      6 C4          -5.7760    -0.5090    -0.5090 ca         1 02P      -0.077300
      7 C3          -6.4300     0.7150    -0.3930 ca         1 02P      -0.097500
      8 C5          -6.5230    -1.6760    -0.3820 ca         1 02P      -0.097500
      9 C26         -7.7960     0.7740    -0.1550 ca         1 02P      -0.107000
     10 C6          -7.8910    -1.6240    -0.1490 ca         1 02P      -0.107000
     11 C1          -8.5330    -0.3970    -0.0320 ca         1 02P      -0.102000
     12 N11         -1.5100     0.8660    -0.2250 n          1 02P      -0.398800
     13 C13         -0.1380     0.9310    -0.6840 c5         1 02P       0.034700
     14 C17          0.8180     0.6130     0.4590 c          1 02P       0.597100
     15 O28          0.6140     0.9830     1.6000 o          1 02P      -0.567100
     16 C15          0.0120     2.3850    -1.1560 c5         1 02P      -0.082400
     17 C16         -1.0000     3.1490    -0.3110 c5         1 02P      -0.095400
     18 C14         -2.1620     2.1720    -0.1870 c5         1 02P       0.111000
     19 CL2          7.5580    -2.1390    -0.6100 cl         1 02P      -0.057000
     20 N18          1.9370    -0.0430     0.0780 ns         1 02P      -0.522900
     21 C19          2.9320    -0.5000     1.0110 c3         1 02P       0.117300
     22 C20          4.3250    -0.1690     0.5560 ca         1 02P      -0.035300
     23 N21          4.7360     1.1140     0.4580 na         1 02P       0.067300
     24 C22          5.1980    -1.1840     0.2260 ca         1 02P      -0.127000
     25 C23          6.4810    -0.8850    -0.2060 ca         1 02P       0.207000
     26 C24          6.8770     0.4380    -0.3100 ca         1 02P      -0.119000
     27 C25          5.9730     1.4100     0.0330 ca         1 02P      -0.004300
     28 C27          3.8410     2.2280     0.7980 c3         1 02P       0.014900
     29 HN10        -3.4520    -2.3140     1.1370 hn         1 02P       0.410500
     30 HN1A        -3.3240    -1.2700     2.3670 hn         1 02P       0.410500
     31 H8          -3.7960     0.5700     1.0170 h1         1 02P       0.077700
     32 H7          -4.0130    -1.5160    -1.1890 hc         1 02P       0.051200
     33 H7A         -4.0090     0.2150    -1.4620 hc         1 02P       0.051200
     34 H3          -5.8650     1.6350    -0.4950 ha         1 02P       0.104500
     35 H5          -6.0320    -2.6370    -0.4750 ha         1 02P       0.104500
     36 H26         -8.2870     1.7350    -0.0680 ha         1 02P       0.115500
     37 H6          -8.4580    -2.5420    -0.0560 ha         1 02P       0.115500
     38 H1          -9.5990    -0.3550     0.1470 ha         1 02P       0.117000
     39 H13          0.0250     0.2320    -1.5080 h1         1 02P       0.078700
     40 H15          1.0310     2.7600    -1.0580 hc         1 02P       0.054700
     41 H15A        -0.2500     2.4410    -2.2140 hc         1 02P       0.054700
     42 H16         -1.3060     4.0890    -0.7680 hc         1 02P       0.069200
     43 H16A        -0.5890     3.3710     0.6740 hc         1 02P       0.069200
     44 H14         -2.8620     2.2800    -1.0220 h1         1 02P       0.062700
     45 H14A        -2.7190     2.3130     0.7380 h1         1 02P       0.062700
     46 HN18         1.9690    -0.4340    -0.8520 hn         1 02P       0.329500
     47 H19          2.7330    -0.0640     1.9910 h1         1 02P       0.102700
     48 H19A         2.8740    -1.5820     1.1370 h1         1 02P       0.102700
     49 H22          4.8640    -2.2090     0.3080 ha         1 02P       0.185000
     50 H24          7.8630     0.7220    -0.6450 ha         1 02P       0.188000
     51 H25          6.2280     2.4570    -0.0260 h4         1 02P       0.185000
     52 H27          3.3230     2.0220     1.7280 h1         1 02P       0.098033
     53 H27A         4.4370     3.1250     0.9220 h1         1 02P       0.098033
     54 H27B         3.1270     2.3780    -0.0050 h1         1 02P       0.098033
@<TRIPOS>BOND
     1     1     2 1   
     2     1    29 1   
     3     1    30 1   
     4     2     3 1   
     5     2     5 1   
     6     2    31 1   
     7     3     4 2   
     8     3    12 1   
     9     5     6 1   
    10     5    32 1   
    11     5    33 1   
    12     6     7 ar  
    13     6     8 ar  
    14     7     9 ar  
    15     7    34 1   
    16     8    10 ar  
    17     8    35 1   
    18     9    11 ar  
    19     9    36 1   
    20    10    11 ar  
    21    10    37 1   
    22    11    38 1   
    23    12    13 1   
    24    12    18 1   
    25    13    14 1   
    26    13    16 1   
    27    13    39 1   
    28    14    15 2   
    29    14    20 1   
    30    16    17 1   
    31    16    40 1   
    32    16    41 1   
    33    17    18 1   
    34    17    42 1   
    35    17    43 1   
    36    18    44 1   
    37    18    45 1   
    38    19    25 1   
    39    20    21 1   
    40    20    46 1   
    41    21    22 1   
    42    21    47 1   
    43    21    48 1   
    44    22    23 1   
    45    22    24 ar  
    46    23    27 2   
    47    23    28 1   
    48    24    25 ar  
    49    24    49 1   
    50    25    26 ar  
    51    26    27 ar  
    52    26    50 1   
    53    27    51 1   
    54    28    52 1   
    55    28    53 1   
    56    28    54 1   
@<TRIPOS>SUBSTRUCTURE
     1 02P         1 TEMP              0 ****  ****    0 ROOT
