@<TRIPOS>MOLECULE
02P
   54    56     1     0     0
SMALL
No Charge or Current Charge


@<TRIPOS>ATOM
      1 N10         -4.3070    -1.6140     1.7970 n8         1 02P      -0.970200
      2 C8          -3.7350    -0.7380     0.7120 c3         1 02P       0.106500
      3 C9          -2.2050    -0.9710     0.4050 c          1 02P       0.566100
      4 O12         -1.6630    -2.0380     0.6810 o          1 02P      -0.628100
      5 C7          -4.5790    -0.8590    -0.5870 c3         1 02P      -0.020100
      6 C4          -5.9860    -0.2820    -0.4550 ca         1 02P      -0.077300
      7 C3          -6.1780     1.1140    -0.4200 ca         1 02P      -0.097500
      8 C5          -7.1060    -1.1340    -0.3820 ca         1 02P      -0.097500
      9 C26         -7.4720     1.6500    -0.3090 ca         1 02P      -0.107000
     10 C6          -8.4010    -0.5970    -0.2710 ca         1 02P      -0.107000
     11 C1          -8.5850     0.7950    -0.2340 ca         1 02P      -0.102000
     12 N11         -1.4540     0.0610    -0.2050 n          1 02P      -0.398800
     13 C13         -0.0170    -0.1100    -0.5570 c5         1 02P       0.034700
     14 C17          0.9540    -0.0580     0.6670 c          1 02P       0.597100
     15 O28          0.6970     0.2910     1.8110 o          1 02P      -0.567100
     16 C15          0.2100     1.1340    -1.4700 c5         1 02P      -0.082400
     17 C16         -0.6610     2.2110    -0.7760 c5         1 02P      -0.095400
     18 C14         -1.9650     1.4280    -0.4730 c5         1 02P       0.111000
     19 Cl2          7.9160    -0.6880    -1.5320 cl         1 02P      -0.057000
     20 N18          2.2080    -0.4850     0.2760 ns         1 02P      -0.522900
     21 C19          3.3800    -0.5550     1.1580 c3         1 02P       0.117300
     22 C20          4.5620     0.2200     0.5750 ca         1 02P      -0.035300
     23 N21          4.6510     1.6220     0.7130 na         1 02P       0.067300
     24 C22          5.5680    -0.4840    -0.1220 ca         1 02P      -0.127000
     25 C23          6.6670     0.1980    -0.6670 ca         1 02P       0.207000
     26 C24          6.7670     1.5880    -0.5140 ca         1 02P      -0.119000
     27 C25          5.7610     2.2870     0.1770 ca         1 02P      -0.004300
     28 C27          3.5780     2.4050     1.3620 c3         1 02P       0.014900
     29 HN10        -4.1110    -2.5930     1.5580 hn         1 02P       0.410500
     30 HN1A        -3.7610    -1.4810     2.6570 hn         1 02P       0.410500
     31 H8          -3.8220     0.2970     1.0670 h1         1 02P       0.077700
     32 H7          -4.6190    -1.9120    -0.8910 hc         1 02P       0.051200
     33 H7A         -4.0640    -0.3440    -1.4060 hc         1 02P       0.051200
     34 H3          -5.3240     1.7840    -0.4820 ha         1 02P       0.104500
     35 H5          -6.9750    -2.2140    -0.4090 ha         1 02P       0.104500
     36 H26         -7.6130     2.7290    -0.2820 ha         1 02P       0.115500
     37 H6          -9.2610    -1.2610    -0.2130 ha         1 02P       0.115500
     38 H1          -9.5860     1.2110    -0.1480 ha         1 02P       0.117000
     39 H13          0.1580    -1.0470    -1.1030 h1         1 02P       0.078700
     40 H15          1.2630     1.4280    -1.5540 hc         1 02P       0.054700
     41 H15A        -0.1500     0.9400    -2.4880 hc         1 02P       0.054700
     42 H16         -0.8390     3.0880    -1.4090 hc         1 02P       0.069200
     43 H16A        -0.1920     2.5690     0.1490 hc         1 02P       0.069200
     44 H14         -2.6360     1.4320    -1.3420 h1         1 02P       0.062700
     45 H14A        -2.4970     1.8610     0.3840 h1         1 02P       0.062700
     46 HN18         2.3180    -0.7610    -0.6940 hn         1 02P       0.329500
     47 H19          3.1350    -0.1780     2.1600 h1         1 02P       0.102700
     48 H19A         3.6580    -1.6110     1.2830 h1         1 02P       0.102700
     49 H22          5.5030    -1.5630    -0.2440 ha         1 02P       0.185000
     50 H24          7.6200     2.1200    -0.9290 ha         1 02P       0.188000
     51 H25          5.8210     3.3690     0.3080 h4         1 02P       0.185000
     52 H27          3.4390     2.0650     2.3950 h1         1 02P       0.098033
     53 H27A         3.8350     3.4710     1.3780 h1         1 02P       0.098033
     54 H27B         2.6420     2.2820     0.8060 h1         1 02P       0.098033
@<TRIPOS>BOND
     1     1     2 1   
     2     1    29 1   
     3     1    30 1   
     4     2     3 1   
     5     2     5 1   
     6     2    31 1   
     7     3     4 2   
     8     3    12 1   
     9     5     6 1   
    10     5    32 1   
    11     5    33 1   
    12     6     7 ar  
    13     6     8 ar  
    14     7     9 ar  
    15     7    34 1   
    16     8    10 ar  
    17     8    35 1   
    18     9    11 ar  
    19     9    36 1   
    20    10    11 ar  
    21    10    37 1   
    22    11    38 1   
    23    12    13 1   
    24    12    18 1   
    25    13    14 1   
    26    13    16 1   
    27    13    39 1   
    28    14    15 2   
    29    14    20 1   
    30    16    17 1   
    31    16    40 1   
    32    16    41 1   
    33    17    18 1   
    34    17    42 1   
    35    17    43 1   
    36    18    44 1   
    37    18    45 1   
    38    19    25 1   
    39    20    21 1   
    40    20    46 1   
    41    21    22 1   
    42    21    47 1   
    43    21    48 1   
    44    22    23 1   
    45    22    24 ar  
    46    23    27 2   
    47    23    28 1   
    48    24    25 ar  
    49    24    49 1   
    50    25    26 ar  
    51    26    27 ar  
    52    26    50 1   
    53    27    51 1   
    54    28    52 1   
    55    28    53 1   
    56    28    54 1   
@<TRIPOS>SUBSTRUCTURE
     1 02P         1 TEMP              0 ****  ****    0 ROOT
