@<TRIPOS>MOLECULE
02Q
   23    23     1     0     0
SMALL
abcg2


@<TRIPOS>ATOM
      1 C28          3.0150    -0.1880     0.2090 c          1 02Q       0.716000
      2 C33         -1.5560     0.9450    -0.1100 ca         1 02Q      -0.077300
      3 C34         -2.9000     0.8850     0.2540 ca         1 02Q      -0.120000
      4 C35         -3.5630    -0.3280     0.3910 ca         1 02Q      -0.138000
      5 C37         -2.8770    -1.5100     0.1560 ca         1 02Q      -0.123000
      6 C36         -1.5400    -1.4610    -0.2130 ca         1 02Q      -0.116000
      7 C32         -0.8620    -0.2510    -0.3510 ca         1 02Q      -0.043300
      8 C31          0.5970    -0.2580    -0.7180 c3         1 02Q      -0.025100
      9 C9           1.5050    -0.2090     0.5070 c3         1 02Q      -0.203400
     10 O29          3.3730    -0.1730    -0.9850 o          1 02Q      -0.740500
     11 H38         -0.0680     2.4050     0.4650 hc         1 02Q       0.040033
     12 H38A        -0.4550     2.4180    -1.2450 hc         1 02Q       0.040033
     13 H38B        -1.5900     3.0930    -0.0830 hc         1 02Q       0.040033
     14 H34         -3.4390     1.8080     0.4320 ha         1 02Q       0.093000
     15 H35         -4.6090    -0.3450     0.6720 ha         1 02Q       0.092000
     16 H37         -3.3780    -2.4640     0.2560 ha         1 02Q       0.095000
     17 H36         -1.0070    -2.3850    -0.4050 ha         1 02Q       0.111000
     18 H31          0.8170    -1.1620    -1.2900 hc         1 02Q       0.050700
     19 H31A         0.8260     0.5800    -1.3790 hc         1 02Q       0.050700
     20 H9           1.2940    -1.0680     1.1540 hc         1 02Q       0.020200
     21 H9A          1.2670     0.6670     1.1200 hc         1 02Q       0.020200
     22 OXT          3.7660    -0.1830     1.2070 o          1 02Q      -0.740500
     23 C38         -0.8830     2.2810    -0.2500 c3         1 02Q      -0.043800
@<TRIPOS>BOND
     1     1     9 1   
     2     1    10 1   
     3     1    22 1   
     4     2     3 ar  
     5     2     7 ar  
     6     2    23 1   
     7     3     4 ar  
     8     3    14 1   
     9     4     5 ar  
    10     4    15 1   
    11     5     6 ar  
    12     5    16 1   
    13     6     7 ar  
    14     6    17 1   
    15     7     8 1   
    16     8     9 1   
    17     8    18 1   
    18     8    19 1   
    19     9    20 1   
    20     9    21 1   
    21    11    23 1   
    22    12    23 1   
    23    13    23 1   
@<TRIPOS>SUBSTRUCTURE
     1 02Q         1 TEMP              0 ****  ****    0 ROOT
