@<TRIPOS>MOLECULE
02Q
   23    23     1     0     0
SMALL
No Charge or Current Charge


@<TRIPOS>ATOM
      1 C28          3.0350    -0.2130     0.2160 c          1 02Q       0.716000
      2 C33         -1.5960     0.9520    -0.2140 ca         1 02Q      -0.077300
      3 C34         -2.9650     0.8950     0.1200 ca         1 02Q      -0.120000
      4 C35         -3.5820    -0.3310     0.4120 ca         1 02Q      -0.138000
      5 C37         -2.8350    -1.5170     0.3730 ca         1 02Q      -0.123000
      6 C36         -1.4720    -1.4740     0.0400 ca         1 02Q      -0.116000
      7 C32         -0.8400    -0.2490    -0.2580 ca         1 02Q      -0.043300
      8 C31          0.6490    -0.2660    -0.6140 c3         1 02Q      -0.025100
      9 C9           1.5570    -0.1890     0.6370 c3         1 02Q      -0.203400
     10 O29          3.5820     0.8510    -0.0290 o          1 02Q      -0.740500
     11 H38         -0.0790     2.4870     0.0900 hc         1 02Q       0.040033
     12 H38A        -0.6760     2.3770    -1.5770 hc         1 02Q       0.040033
     13 H38B        -1.6660     3.1330    -0.3250 hc         1 02Q       0.040033
     14 H34         -3.5570     1.8070     0.1550 ha         1 02Q       0.093000
     15 H35         -4.6380    -0.3620     0.6700 ha         1 02Q       0.092000
     16 H37         -3.3100    -2.4680     0.6010 ha         1 02Q       0.095000
     17 H36         -0.9010    -2.3990     0.0150 ha         1 02Q       0.111000
     18 H31          0.8840    -1.1860    -1.1630 hc         1 02Q       0.050700
     19 H31A         0.9020     0.5510    -1.2990 hc         1 02Q       0.050700
     20 H9           1.3140    -1.0740     1.2380 hc         1 02Q       0.020200
     21 H9A          1.3130     0.7590     1.1320 hc         1 02Q       0.020200
     22 OXT          3.5830    -1.2980     0.0950 o          1 02Q      -0.740500
     23 C38         -0.9700     2.3100    -0.5230 c3         1 02Q      -0.043800
@<TRIPOS>BOND
     1     1     9 1   
     2     1    10 1   
     3     1    22 1   
     4     2     3 ar  
     5     2     7 ar  
     6     2    23 1   
     7     3     4 ar  
     8     3    14 1   
     9     4     5 ar  
    10     4    15 1   
    11     5     6 ar  
    12     5    16 1   
    13     6     7 ar  
    14     6    17 1   
    15     7     8 1   
    16     8     9 1   
    17     8    18 1   
    18     8    19 1   
    19     9    20 1   
    20     9    21 1   
    21    11    23 1   
    22    12    23 1   
    23    13    23 1   
@<TRIPOS>SUBSTRUCTURE
     1 02Q         1 TEMP              0 ****  ****    0 ROOT
