@<TRIPOS>MOLECULE
02R
   17    17     1     0     0
SMALL
No Charge or Current Charge


@<TRIPOS>ATOM
      1 C4           2.4800     0.7340    -0.2090 ca         1 02R      -0.099000
      2 C5           1.2620     1.4270    -0.1120 ca         1 02R      -0.109000
      3 C6           0.0620     0.7280     0.1100 ca         1 02R       0.147000
      4 N30         -1.8230    -1.9270    -0.7800 n8         1 02R      -0.985200
      5 C1           0.0730    -0.6820     0.2360 ca         1 02R      -0.075300
      6 C2           1.3020    -1.3680     0.1380 ca         1 02R      -0.103000
      7 C3           2.4990    -0.6640    -0.0840 ca         1 02R      -0.112000
      8 Cl7         -1.4350     1.6570     0.2240 cl         1 02R      -0.198000
      9 H4           3.4060     1.2790    -0.3800 ha         1 02R       0.117000
     10 H5           1.2460     2.5100    -0.2080 ha         1 02R       0.128000
     11 H8          -1.9330    -0.8830     1.0490 h1         1 02R       0.038700
     12 H8A         -0.9670    -2.3660     1.0880 h1         1 02R       0.038700
     13 HN30        -1.1670    -2.5500    -1.2650 hn         1 02R       0.394500
     14 H2           1.3300    -2.4510     0.2340 ha         1 02R       0.111000
     15 H3           3.4410    -1.2040    -0.1580 ha         1 02R       0.116000
     16 H1          -2.6220    -2.5350    -0.5630 hn         1 02R       0.394500
     17 C8          -1.2040    -1.4800     0.4840 c3         1 02R       0.197100
@<TRIPOS>BOND
     1     1     2 ar  
     2     1     7 ar  
     3     1     9 1   
     4     2     3 ar  
     5     2    10 1   
     6     3     5 ar  
     7     3     8 1   
     8     4    13 1   
     9     4    16 1   
    10     4    17 1   
    11     5     6 ar  
    12     5    17 1   
    13     6     7 ar  
    14     6    14 1   
    15     7    15 1   
    16    11    17 1   
    17    12    17 1   
@<TRIPOS>SUBSTRUCTURE
     1 02R         1 TEMP              0 ****  ****    0 ROOT
