@<TRIPOS>MOLECULE
02R
   17    17     1     0     0
SMALL
bcc


@<TRIPOS>ATOM
      1 C4           2.4490     0.7300    -0.2140 ca         1 02R      -0.117000
      2 C5           1.2190     1.3730    -0.1850 ca         1 02R      -0.127000
      3 C6           0.0690     0.6340     0.0450 ca         1 02R       0.055400
      4 N30         -1.8680    -1.7330    -0.7560 n8         1 02R      -0.874800
      5 C1           0.1040    -0.7420     0.2630 ca         1 02R      -0.075300
      6 C2           1.3530    -1.3570     0.2270 ca         1 02R      -0.121000
      7 C3           2.5170    -0.6390    -0.0070 ca         1 02R      -0.130000
      8 CL7         -1.4480     1.4790     0.0870 cl         1 02R      -0.106400
      9 H4           3.3470     1.3050    -0.3950 ha         1 02R       0.135000
     10 H5           1.1570     2.4420    -0.3370 ha         1 02R       0.146000
     11 H8          -1.7860    -1.0600     1.2050 h1         1 02R       0.038700
     12 H8A         -0.8330    -2.5090     0.9600 h1         1 02R       0.038700
     13 HN30        -1.3420    -2.3370    -1.3750 hn         1 02R       0.339300
     14 H2           1.4080    -2.4280     0.3890 ha         1 02R       0.129000
     15 H3           3.4720    -1.1490    -0.0270 ha         1 02R       0.134000
     16 H1          -2.7350    -2.2190    -0.5650 hn         1 02R       0.339300
     17 C8          -1.1340    -1.5650     0.4890 c3         1 02R       0.197100
@<TRIPOS>BOND
     1     1     2 ar  
     2     1     7 ar  
     3     1     9 1   
     4     2     3 ar  
     5     2    10 1   
     6     3     5 ar  
     7     3     8 1   
     8     4    13 1   
     9     4    16 1   
    10     4    17 1   
    11     5     6 ar  
    12     5    17 1   
    13     6     7 ar  
    14     6    14 1   
    15     7    15 1   
    16    11    17 1   
    17    12    17 1   
@<TRIPOS>SUBSTRUCTURE
     1 02R         1 TEMP              0 ****  ****    0 ROOT
