@<TRIPOS>MOLECULE
02S
   28    29     1     0     0
SMALL
No Charge or Current Charge


@<TRIPOS>ATOM
      1 C8          -3.3680    -0.1200     0.0200 ca         1 02S      -0.160600
      2 C27         -4.8860    -0.0770     0.0240 c          1 02S       0.715600
      3 O28         -5.5020    -1.1340     0.0280 o          1 02S      -0.724500
      4 C34         -2.6790    -1.3550     0.0220 ca         1 02S      -0.057000
      5 C33         -1.2730    -1.3900     0.0180 ca         1 02S      -0.199000
      6 C30         -2.6100     1.0750     0.0150 ca         1 02S      -0.057000
      7 C31         -1.2040     1.0370     0.0110 ca         1 02S      -0.199000
      8 C32         -0.5300    -0.2020     0.0130 ca         1 02S       0.095100
      9 O35          0.8460    -0.3010     0.0100 os         1 02S      -0.357100
     10 C36          1.6970     0.8590     0.0050 c3         1 02S       0.211900
     11 C37          3.1490     0.3980     0.0020 ca         1 02S      -0.077300
     12 C38          3.8290     0.1860     1.2180 ca         1 02S      -0.086500
     13 C39          5.1700    -0.2370     1.2150 ca         1 02S      -0.121000
     14 C40          5.8380    -0.4510    -0.0020 ca         1 02S      -0.112000
     15 C41          5.1650    -0.2430    -1.2170 ca         1 02S      -0.121000
     16 C42          3.8240     0.1800    -1.2150 ca         1 02S      -0.086500
     17 H34         -3.2300    -2.2930     0.0260 ha         1 02S       0.127000
     18 H33         -0.7590    -2.3480     0.0200 ha         1 02S       0.095000
     19 H30         -3.1100     2.0420     0.0130 ha         1 02S       0.127000
     20 H31         -0.6600     1.9770     0.0070 ha         1 02S       0.095000
     21 H36          1.5080     1.4730    -0.8860 h1         1 02S       0.035700
     22 H36A         1.5120     1.4780     0.8920 h1         1 02S       0.035700
     23 H38          3.3180     0.3480     2.1650 ha         1 02S       0.116500
     24 H39          5.6910    -0.3990     2.1570 ha         1 02S       0.106000
     25 H40          6.8760    -0.7790    -0.0030 ha         1 02S       0.102000
     26 H41          5.6800    -0.4100    -2.1600 ha         1 02S       0.106000
     27 H42          3.3080     0.3370    -2.1600 ha         1 02S       0.116500
     28 OXT         -5.4420     1.0120     0.0220 o          1 02S      -0.724500
@<TRIPOS>BOND
     1     1     2 1   
     2     1     4 ar  
     3     1     6 ar  
     4     2     3 1   
     5     2    28 1   
     6     4     5 ar  
     7     4    17 1   
     8     5     8 ar  
     9     5    18 1   
    10     6     7 ar  
    11     6    19 1   
    12     7     8 ar  
    13     7    20 1   
    14     8     9 1   
    15     9    10 1   
    16    10    11 1   
    17    10    21 1   
    18    10    22 1   
    19    11    12 ar  
    20    11    16 ar  
    21    12    13 ar  
    22    12    23 1   
    23    13    14 ar  
    24    13    24 1   
    25    14    15 ar  
    26    14    25 1   
    27    15    16 ar  
    28    15    26 1   
    29    16    27 1   
@<TRIPOS>SUBSTRUCTURE
     1 02S         1 TEMP              0 ****  ****    0 ROOT
