@<TRIPOS>MOLECULE
02S
   28    29     1     0     0
SMALL
abcg2


@<TRIPOS>ATOM
      1 C8          -3.2870    -0.1180     0.0280 ca         1 02S      -0.160600
      2 C27         -4.8060    -0.0820     0.0580 c          1 02S       0.715600
      3 O28         -5.3910    -1.1830     0.0510 o          1 02S      -0.724500
      4 C34         -2.5940    -1.3290     0.0040 ca         1 02S      -0.057000
      5 C33         -1.2130    -1.3710    -0.0220 ca         1 02S      -0.199000
      6 C30         -2.5380     1.0520     0.0240 ca         1 02S      -0.057000
      7 C31         -1.1480     1.0350    -0.0020 ca         1 02S      -0.199000
      8 C32         -0.4760    -0.1840    -0.0240 ca         1 02S       0.095100
      9 O35          0.8670    -0.3170    -0.0480 os         1 02S      -0.357100
     10 C36          1.6660     0.8570    -0.0070 c3         1 02S       0.211900
     11 C37          3.0990     0.4190     0.0000 ca         1 02S      -0.077300
     12 C38          3.7680     0.2140     1.2030 ca         1 02S      -0.086500
     13 C39          5.0840    -0.2280     1.2120 ca         1 02S      -0.121000
     14 C40          5.7430    -0.4730     0.0150 ca         1 02S      -0.112000
     15 C41          5.0830    -0.2700    -1.1910 ca         1 02S      -0.121000
     16 C42          3.7670     0.1720    -1.1960 ca         1 02S      -0.086500
     17 H34         -3.1500    -2.2580     0.0070 ha         1 02S       0.127000
     18 H33         -0.6910    -2.3200    -0.0390 ha         1 02S       0.095000
     19 H30         -3.0480     2.0070     0.0420 ha         1 02S       0.127000
     20 H31         -0.6120     1.9750    -0.0050 ha         1 02S       0.095000
     21 H36          1.4610     1.4900    -0.8770 h1         1 02S       0.035700
     22 H36A         1.4380     1.4430     0.8900 h1         1 02S       0.035700
     23 H38          3.2590     0.4070     2.1400 ha         1 02S       0.116500
     24 H39          5.5950    -0.3820     2.1540 ha         1 02S       0.106000
     25 H40          6.7690    -0.8160     0.0200 ha         1 02S       0.102000
     26 H41          5.5930    -0.4550    -2.1270 ha         1 02S       0.106000
     27 H42          3.2590     0.3350    -2.1390 ha         1 02S       0.116500
     28 OXT         -5.3400     1.0440     0.0890 o          1 02S      -0.724500
@<TRIPOS>BOND
     1     1     2 1   
     2     1     4 ar  
     3     1     6 ar  
     4     2     3 1   
     5     2    28 1   
     6     4     5 ar  
     7     4    17 1   
     8     5     8 ar  
     9     5    18 1   
    10     6     7 ar  
    11     6    19 1   
    12     7     8 ar  
    13     7    20 1   
    14     8     9 1   
    15     9    10 1   
    16    10    11 1   
    17    10    21 1   
    18    10    22 1   
    19    11    12 ar  
    20    11    16 ar  
    21    12    13 ar  
    22    12    23 1   
    23    13    14 ar  
    24    13    24 1   
    25    14    15 ar  
    26    14    25 1   
    27    15    16 ar  
    28    15    26 1   
    29    16    27 1   
@<TRIPOS>SUBSTRUCTURE
     1 02S         1 TEMP              0 ****  ****    0 ROOT
