@<TRIPOS>MOLECULE
02T
   17    17     1     0     0
SMALL
bcc


@<TRIPOS>ATOM
      1 C4           1.9430    -0.0890    -0.5160 cc         1 02T      -0.132100
      2 C5           1.5320     1.1810    -0.2600 cd         1 02T      -0.150000
      3 C6           0.1440     1.2700     0.0690 cd         1 02T      -0.103300
      4 C7          -0.5330     2.5630     0.4050 c3         1 02T      -0.024800
      5 S3           0.6500    -1.2070    -0.3730 ss         1 02T      -0.041800
      6 C1          -0.4610     0.0450     0.0490 cc         1 02T      -0.073400
      7 C2          -1.8710    -0.3310     0.3750 c3         1 02T       0.223100
      8 N29         -2.2480    -1.5480    -0.3220 n8         1 02T      -0.896800
      9 H4           2.9290    -0.4220    -0.8010 h4         1 02T       0.165000
     10 H5           2.1880     2.0400    -0.3080 ha         1 02T       0.147000
     11 H7          -0.1360     3.3790    -0.1980 hc         1 02T       0.039033
     12 H7A         -1.6090     2.5180     0.2380 hc         1 02T       0.039033
     13 H7B         -0.3800     2.8320     1.4520 hc         1 02T       0.039033
     14 H2          -1.9560    -0.5200     1.4480 h1         1 02T       0.040200
     15 H2A         -2.5240     0.5280     0.1700 h1         1 02T       0.040200
     16 HN29        -3.1330    -1.8820     0.0370 hn         1 02T       0.345300
     17 H1          -2.3960    -1.3510    -1.3030 hn         1 02T       0.345300
@<TRIPOS>BOND
     1     1     2 2   
     2     1     5 1   
     3     1     9 1   
     4     2     3 1   
     5     2    10 1   
     6     3     4 1   
     7     3     6 2   
     8     4    11 1   
     9     4    12 1   
    10     4    13 1   
    11     5     6 1   
    12     6     7 1   
    13     7     8 1   
    14     7    14 1   
    15     7    15 1   
    16     8    16 1   
    17     8    17 1   
@<TRIPOS>SUBSTRUCTURE
     1 02T         1 TEMP              0 ****  ****    0 ROOT
