@<TRIPOS>MOLECULE
02T
   17    17     1     0     0
SMALL
No Charge or Current Charge


@<TRIPOS>ATOM
      1 C4           2.1340    -0.0440    -0.3650 cc         1 02T      -0.259000
      2 C5           1.5070     1.1750    -0.3790 cd         1 02T      -0.132000
      3 C6           0.1290     1.1320    -0.0220 cd         1 02T      -0.103300
      4 C7          -0.7420     2.3630     0.0330 c3         1 02T      -0.024800
      5 S3           1.0170    -1.3160     0.1050 ss         1 02T       0.248000
      6 C1          -0.2940    -0.1490     0.2660 cc         1 02T      -0.218300
      7 C2          -1.6590    -0.6040     0.6960 c3         1 02T       0.223100
      8 N29         -2.4820    -0.9190    -0.4800 n8         1 02T      -1.007200
      9 H4           3.1630    -0.2910    -0.5910 h4         1 02T       0.147000
     10 H5           2.0220     2.0950    -0.6410 ha         1 02T       0.129000
     11 H7          -0.1900     3.2590    -0.2740 hc         1 02T       0.039033
     12 H7A         -1.6080     2.2630    -0.6330 hc         1 02T       0.039033
     13 H7B         -1.1160     2.5350     1.0490 hc         1 02T       0.039033
     14 H2          -1.5760    -1.4980     1.3290 h1         1 02T       0.040200
     15 H2A         -2.1500     0.1880     1.2790 h1         1 02T       0.040200
     16 HN29        -3.4410    -1.1150    -0.1690 hn         1 02T       0.400500
     17 H1          -2.5760    -0.0660    -1.0410 hn         1 02T       0.400500
@<TRIPOS>BOND
     1     1     2 2   
     2     1     5 1   
     3     1     9 1   
     4     2     3 1   
     5     2    10 1   
     6     3     4 1   
     7     3     6 2   
     8     4    11 1   
     9     4    12 1   
    10     4    13 1   
    11     5     6 1   
    12     6     7 1   
    13     7     8 1   
    14     7    14 1   
    15     7    15 1   
    16     8    16 1   
    17     8    17 1   
@<TRIPOS>SUBSTRUCTURE
     1 02T         1 TEMP              0 ****  ****    0 ROOT
