@<TRIPOS>MOLECULE
02U
   50    49     1     0     0
SMALL
No Charge or Current Charge


@<TRIPOS>ATOM
      1 C           -7.8600    -1.4600    -0.1550 c          1 02U       0.717000
      2 O           -7.9250    -2.3750    -0.9620 o          1 02U      -0.744000
      3 OXT         -8.4190    -1.4750     0.9310 o          1 02U      -0.744000
      4 CH3         -6.9750    -0.2480    -0.5000 c3         1 02U      -0.204400
      5 H1          -6.9060    -0.1200    -1.5880 hc         1 02U       0.014200
      6 H2          -7.3270     0.6480     0.0270 hc         1 02U       0.014200
      7 C1          -5.5260    -0.4860    -0.0090 c3         1 02U      -0.053400
      8 C2          -4.5760     0.6930    -0.3210 c3         1 02U      -0.079400
      9 C3          -3.1320     0.4520     0.1700 c3         1 02U      -0.074400
     10 C4          -2.1830     1.6310    -0.1420 c3         1 02U      -0.076400
     11 C5          -0.7380     1.3900     0.3490 c3         1 02U      -0.072400
     12 C6           0.2120     2.5660     0.0390 c3         1 02U      -0.044200
     13 C7           1.6210     2.3040     0.5260 c2         1 02U      -0.204200
     14 C8           2.7010     2.1730    -0.2620 c2         1 02U      -0.234200
     15 C9           4.1110     1.9140     0.2250 c3         1 02U      -0.037200
     16 C10          4.6390     0.5370    -0.2310 c3         1 02U      -0.073400
     17 C11          6.0820     0.2510     0.2540 c3         1 02U      -0.073400
     18 C12          6.6160    -1.1750    -0.0650 c3         1 02U      -0.059700
     19 C13          6.6970    -1.4450    -1.5910 c3         1 02U      -0.085100
     20 C14          7.9800    -1.4100     0.6450 c3         1 02U      -0.072400
     21 C15          8.5200    -2.8550     0.5640 c3         1 02U      -0.087100
     22 H3          -5.5370    -0.6610     1.0740 hc         1 02U       0.037700
     23 H4          -5.1330    -1.3980    -0.4760 hc         1 02U       0.037700
     24 H5          -4.5630     0.8680    -1.4040 hc         1 02U       0.023700
     25 H6          -4.9680     1.6050     0.1470 hc         1 02U       0.023700
     26 H7          -3.1440     0.2770     1.2530 hc         1 02U       0.034200
     27 H8          -2.7390    -0.4590    -0.2980 hc         1 02U       0.034200
     28 H9          -2.1710     1.8060    -1.2250 hc         1 02U       0.032200
     29 H10         -2.5750     2.5420     0.3260 hc         1 02U       0.032200
     30 H11         -0.7500     1.2140     1.4320 hc         1 02U       0.038200
     31 H12         -0.3440     0.4790    -0.1190 hc         1 02U       0.038200
     32 H13          0.2100     2.7480    -1.0440 hc         1 02U       0.042200
     33 H14         -0.1770     3.4780     0.5080 hc         1 02U       0.042200
     34 H15          1.7150     2.2250     1.6110 ha         1 02U       0.162000
     35 H16          2.6070     2.2540    -1.3470 ha         1 02U       0.165000
     36 H17          4.7800     2.6990    -0.1490 hc         1 02U       0.038200
     37 H18          4.1510     1.9660     1.3200 hc         1 02U       0.038200
     38 H19          3.9680    -0.2450     0.1470 hc         1 02U       0.042200
     39 H20          4.5990     0.4960    -1.3250 hc         1 02U       0.042200
     40 H21          6.7600     0.9970    -0.1790 hc         1 02U       0.034700
     41 H22          6.1100     0.4000     1.3410 hc         1 02U       0.034700
     42 H23          5.9010    -1.8930     0.3590 hc         1 02U       0.047700
     43 H24          7.3910    -0.7470    -2.0740 hc         1 02U       0.030700
     44 H25          7.0380    -2.4660    -1.7960 hc         1 02U       0.030700
     45 H26          5.7150    -1.3400    -2.0660 hc         1 02U       0.030700
     46 H27          8.7310    -0.7250     0.2300 hc         1 02U       0.034700
     47 H28          7.8770    -1.1520     1.7060 hc         1 02U       0.034700
     48 H29          7.7690    -3.5710     0.9190 hc         1 02U       0.030367
     49 H30          8.8000    -3.1200    -0.4620 hc         1 02U       0.030367
     50 H31          9.4130    -2.9590     1.1910 hc         1 02U       0.030367
@<TRIPOS>BOND
     1     1     2 1   
     2     1     3 1   
     3     1     4 1   
     4     4     5 1   
     5     4     6 1   
     6     4     7 1   
     7     7     8 1   
     8     7    22 1   
     9     7    23 1   
    10     8     9 1   
    11     8    24 1   
    12     8    25 1   
    13     9    10 1   
    14     9    26 1   
    15     9    27 1   
    16    10    11 1   
    17    10    28 1   
    18    10    29 1   
    19    11    12 1   
    20    11    30 1   
    21    11    31 1   
    22    12    13 1   
    23    12    32 1   
    24    12    33 1   
    25    13    14 2   
    26    13    34 1   
    27    14    15 1   
    28    14    35 1   
    29    15    16 1   
    30    15    36 1   
    31    15    37 1   
    32    16    17 1   
    33    16    38 1   
    34    16    39 1   
    35    17    18 1   
    36    17    40 1   
    37    17    41 1   
    38    18    19 1   
    39    18    20 1   
    40    18    42 1   
    41    19    43 1   
    42    19    44 1   
    43    19    45 1   
    44    20    21 1   
    45    20    46 1   
    46    20    47 1   
    47    21    48 1   
    48    21    49 1   
    49    21    50 1   
@<TRIPOS>SUBSTRUCTURE
     1 02U         1 TEMP              0 ****  ****    0 ROOT
