@<TRIPOS>MOLECULE
02U
   50    49     1     0     0
SMALL
abcg2


@<TRIPOS>ATOM
      1 C           -7.9330    -1.3240    -0.0120 c          1 02U       0.717000
      2 O           -7.4980    -2.4340     0.3530 o          1 02U      -0.744000
      3 OXT         -9.1330    -1.0260    -0.1940 o          1 02U      -0.744000
      4 CH3         -6.9140    -0.2030    -0.2820 c3         1 02U      -0.204400
      5 H1          -6.9740     0.0550    -1.3470 hc         1 02U       0.014200
      6 H2          -7.2490     0.6990     0.2430 hc         1 02U       0.014200
      7 C1          -5.4690    -0.5010     0.0830 c3         1 02U      -0.053400
      8 C2          -4.5340     0.6600    -0.2350 c3         1 02U      -0.079400
      9 C3          -3.0830     0.3920     0.1410 c3         1 02U      -0.074400
     10 C4          -2.1520     1.5550    -0.1800 c3         1 02U      -0.076400
     11 C5          -0.7080     1.2980     0.2300 c3         1 02U      -0.072400
     12 C6           0.2260     2.4650    -0.0950 c3         1 02U      -0.044200
     13 C7           1.6110     2.2420     0.4230 c2         1 02U      -0.204200
     14 C8           2.7080     2.1330    -0.3220 c2         1 02U      -0.234200
     15 C9           4.0780     1.8550     0.2130 c3         1 02U      -0.037200
     16 C10          4.6380     0.5230    -0.2870 c3         1 02U      -0.073400
     17 C11          6.0030     0.2000     0.3100 c3         1 02U      -0.073400
     18 C12          6.5920    -1.1450    -0.1210 c3         1 02U      -0.059700
     19 C13          6.9360    -1.1560    -1.6080 c3         1 02U      -0.085100
     20 C14          7.8090    -1.4820     0.7460 c3         1 02U      -0.072400
     21 C15          8.4060    -2.8610     0.4980 c3         1 02U      -0.087100
     22 H3          -5.3960    -0.7390     1.1490 hc         1 02U       0.037700
     23 H4          -5.1290    -1.3950    -0.4470 hc         1 02U       0.037700
     24 H5          -4.5950     0.8930    -1.3050 hc         1 02U       0.023700
     25 H6          -4.8800     1.5600     0.2860 hc         1 02U       0.023700
     26 H7          -3.0220     0.1640     1.2110 hc         1 02U       0.034200
     27 H8          -2.7310    -0.5070    -0.3790 hc         1 02U       0.034200
     28 H9          -2.1960     1.7700    -1.2530 hc         1 02U       0.032200
     29 H10         -2.5150     2.4580     0.3240 hc         1 02U       0.032200
     30 H11         -0.6690     1.0920     1.3050 hc         1 02U       0.038200
     31 H12         -0.3390     0.3950    -0.2660 hc         1 02U       0.038200
     32 H13          0.2510     2.6280    -1.1770 hc         1 02U       0.042200
     33 H14         -0.1870     3.3780     0.3490 hc         1 02U       0.042200
     34 H15          1.7040     2.1410     1.5030 ha         1 02U       0.162000
     35 H16          2.6200     2.2240    -1.4030 ha         1 02U       0.165000
     36 H17          4.7630     2.6570    -0.0850 hc         1 02U       0.038200
     37 H18          4.0530     1.8570     1.3070 hc         1 02U       0.038200
     38 H19          3.9350    -0.2790    -0.0370 hc         1 02U       0.042200
     39 H20          4.6950     0.5490    -1.3790 hc         1 02U       0.042200
     40 H21          6.7130     0.9990     0.0610 hc         1 02U       0.034700
     41 H22          5.9100     0.2090     1.4020 hc         1 02U       0.034700
     42 H23          5.8310    -1.9170     0.0610 hc         1 02U       0.047700
     43 H24          7.7150    -0.4200    -1.8280 hc         1 02U       0.030700
     44 H25          7.3000    -2.1300    -1.9350 hc         1 02U       0.030700
     45 H26          6.0720    -0.9150    -2.2270 hc         1 02U       0.030700
     46 H27          8.5770    -0.7150     0.5940 hc         1 02U       0.034700
     47 H28          7.5150    -1.4080     1.7980 hc         1 02U       0.034700
     48 H29          7.6520    -3.6420     0.6130 hc         1 02U       0.030367
     49 H30          8.8280    -2.9540    -0.5020 hc         1 02U       0.030367
     50 H31          9.2070    -3.0720     1.2080 hc         1 02U       0.030367
@<TRIPOS>BOND
     1     1     2 1   
     2     1     3 1   
     3     1     4 1   
     4     4     5 1   
     5     4     6 1   
     6     4     7 1   
     7     7     8 1   
     8     7    22 1   
     9     7    23 1   
    10     8     9 1   
    11     8    24 1   
    12     8    25 1   
    13     9    10 1   
    14     9    26 1   
    15     9    27 1   
    16    10    11 1   
    17    10    28 1   
    18    10    29 1   
    19    11    12 1   
    20    11    30 1   
    21    11    31 1   
    22    12    13 1   
    23    12    32 1   
    24    12    33 1   
    25    13    14 2   
    26    13    34 1   
    27    14    15 1   
    28    14    35 1   
    29    15    16 1   
    30    15    36 1   
    31    15    37 1   
    32    16    17 1   
    33    16    38 1   
    34    16    39 1   
    35    17    18 1   
    36    17    40 1   
    37    17    41 1   
    38    18    19 1   
    39    18    20 1   
    40    18    42 1   
    41    19    43 1   
    42    19    44 1   
    43    19    45 1   
    44    20    21 1   
    45    20    46 1   
    46    20    47 1   
    47    21    48 1   
    48    21    49 1   
    49    21    50 1   
@<TRIPOS>SUBSTRUCTURE
     1 02U         1 TEMP              0 ****  ****    0 ROOT
