@<TRIPOS>MOLECULE
02W
   26    27     1     0     0
SMALL
bcc


@<TRIPOS>ATOM
      1 C1           1.8570     0.4100    -0.6560 c3         1 02W       0.047300
      2 C2           2.4810     0.9980     0.6050 c3         1 02W       0.126800
      3 N1           3.7080     1.6900     0.2570 n8         1 02W      -0.889800
      4 C14         -1.4570    -0.7970     0.1250 ca         1 02W       0.071400
      5 C15         -2.8090    -0.5570     0.3660 ca         1 02W      -0.069000
      6 C16         -3.2630     0.7480     0.2790 ca         1 02W      -0.153000
      7 C17         -2.3960     1.8020    -0.0440 ca         1 02W      -0.115000
      8 C18         -1.0500     1.5830    -0.2890 ca         1 02W      -0.132000
      9 C19         -0.6050     0.2700    -0.1980 ca         1 02W      -0.080200
     10 N3          -0.7460    -1.9720     0.1480 nc         1 02W      -0.577100
     11 N4           0.6300    -0.3020    -0.3790 na         1 02W      -0.154300
     12 C20          0.4830    -1.6390    -0.1480 cd         1 02W       0.421800
     13 C21          1.6230    -2.5860    -0.2340 c3         1 02W      -0.112400
     14 H1           1.6490     1.2050    -1.3730 h1         1 02W       0.066700
     15 H1A          2.5530    -0.2750    -1.1420 h1         1 02W       0.066700
     16 H2           1.7870     1.7180     1.0430 h1         1 02W       0.041200
     17 H2A          2.6090     0.1970     1.3470 h1         1 02W       0.041200
     18 HN1          4.0290     2.2310     1.0480 hn         1 02W       0.343800
     19 H16         -4.3080     0.9620     0.4630 ha         1 02W       0.131000
     20 H17         -2.7870     2.8100    -0.1000 ha         1 02W       0.129000
     21 H18         -0.3860     2.4020    -0.5330 ha         1 02W       0.137000
     22 H21          2.4040    -2.3410     0.4880 hc         1 02W       0.057367
     23 H21A         1.2710    -3.5940    -0.0280 hc         1 02W       0.057367
     24 H21B         2.0790    -2.5780    -1.2250 hc         1 02W       0.057367
     25 H3           4.4380     1.0140     0.0700 hn         1 02W       0.343800
     26 H15         -3.4810    -1.3690     0.6150 ha         1 02W       0.145000
@<TRIPOS>BOND
     1     1     2 1   
     2     1    11 1   
     3     1    14 1   
     4     1    15 1   
     5     2     3 1   
     6     2    16 1   
     7     2    17 1   
     8     3    18 1   
     9     3    25 1   
    10     4     5 ar  
    11     4     9 ar  
    12     4    10 1   
    13     5     6 ar  
    14     5    26 1   
    15     6     7 ar  
    16     6    19 1   
    17     7     8 ar  
    18     7    20 1   
    19     8     9 ar  
    20     8    21 1   
    21     9    11 1   
    22    10    12 2   
    23    11    12 1   
    24    12    13 1   
    25    13    22 1   
    26    13    23 1   
    27    13    24 1   
@<TRIPOS>SUBSTRUCTURE
     1 02W         1 TEMP              0 ****  ****    0 ROOT
