@<TRIPOS>MOLECULE
02W
   26    27     1     0     0
SMALL
No Charge or Current Charge


@<TRIPOS>ATOM
      1 C1           1.8600     0.4690    -0.6650 c3         1 02W       0.076600
      2 C2           2.5190     1.0660     0.6000 c3         1 02W       0.126800
      3 N1           3.7510     1.8320     0.2940 n8         1 02W      -1.000200
      4 C14         -1.4640    -0.8110     0.1050 ca         1 02W       0.071400
      5 C15         -2.8270    -0.5690     0.3350 ca         1 02W      -0.051000
      6 C16         -3.3010     0.7590     0.2580 ca         1 02W      -0.135000
      7 C17         -2.4150     1.8180    -0.0450 ca         1 02W      -0.097000
      8 C18         -1.0490     1.5550    -0.2730 ca         1 02W      -0.114000
      9 C19         -0.6140     0.2230    -0.1900 ca         1 02W      -0.080200
     10 N3          -0.8050    -2.0300     0.1380 nc         1 02W      -0.577100
     11 N4           0.6390    -0.2990    -0.3640 na         1 02W      -0.183600
     12 C20          0.4640    -1.6760    -0.1470 cd         1 02W       0.421800
     13 C21          1.5750    -2.6870    -0.2130 c3         1 02W      -0.112400
     14 H1           1.6070     1.2770    -1.3620 h1         1 02W       0.066700
     15 H1A          2.5750    -0.1920    -1.1710 h1         1 02W       0.066700
     16 H2           1.8030     1.7370     1.0960 h1         1 02W       0.041200
     17 H2A          2.7690     0.2550     1.2990 h1         1 02W       0.041200
     18 HN1          4.1580     2.1810     1.1710 hn         1 02W       0.399000
     19 H16         -4.3540     0.9670     0.4330 ha         1 02W       0.113000
     20 H17         -2.7870     2.8380    -0.1020 ha         1 02W       0.111000
     21 H18         -0.3600     2.3640    -0.5060 ha         1 02W       0.119000
     22 H21          2.3890    -2.4160     0.4690 hc         1 02W       0.057367
     23 H21A         1.2240    -3.6870     0.0660 hc         1 02W       0.057367
     24 H21B         1.9860    -2.7450    -1.2270 hc         1 02W       0.057367
     25 H3           4.4720     1.1910    -0.0620 hn         1 02W       0.399000
     26 H15         -3.5020    -1.3880     0.5690 ha         1 02W       0.127000
@<TRIPOS>BOND
     1     1     2 1   
     2     1    11 1   
     3     1    14 1   
     4     1    15 1   
     5     2     3 1   
     6     2    16 1   
     7     2    17 1   
     8     3    18 1   
     9     3    25 1   
    10     4     5 ar  
    11     4     9 ar  
    12     4    10 1   
    13     5     6 ar  
    14     5    26 1   
    15     6     7 ar  
    16     6    19 1   
    17     7     8 ar  
    18     7    20 1   
    19     8     9 ar  
    20     8    21 1   
    21     9    11 1   
    22    10    12 2   
    23    11    12 1   
    24    12    13 1   
    25    13    22 1   
    26    13    23 1   
    27    13    24 1   
@<TRIPOS>SUBSTRUCTURE
     1 02W         1 TEMP              0 ****  ****    0 ROOT
