@<TRIPOS>MOLECULE
02X
   21    20     1     0     0
SMALL
No Charge or Current Charge


@<TRIPOS>ATOM
      1 C3          -2.1500    -0.2200     0.3370 c          1 02X       0.730000
      2 O1          -2.5100    -0.5300     1.4630 o          1 02X      -0.766500
      3 C4          -0.9140    -0.9370    -0.2610 c3         1 02X      -0.161400
      4 C5           0.4170    -0.2280     0.1670 c3         1 02X      -0.156700
      5 C6           1.7150    -0.9520    -0.3430 c3         1 02X      -0.048700
      6 C7           0.4010     1.2750    -0.2420 c          1 02X       0.744000
      7 O2           0.4200     1.5680    -1.4300 o          1 02X      -0.763000
      8 C8           3.0040    -0.1990     0.0760 c3         1 02X      -0.072100
      9 C9           1.8120    -2.4340     0.1020 c3         1 02X      -0.072100
     10 H4          -0.8630    -1.9500     0.1550 hc         1 02X      -0.006800
     11 H4A         -0.9410    -0.9160    -1.3580 hc         1 02X      -0.006800
     12 H5           0.4440    -0.2610     1.2640 hc         1 02X       0.032700
     13 H6           1.6880    -0.9500    -1.4400 hc         1 02X       0.038700
     14 H8           3.0750    -0.1260     1.1680 hc         1 02X       0.006367
     15 H8A          3.8960    -0.7250    -0.2880 hc         1 02X       0.006367
     16 H8B          3.0320     0.8140    -0.3410 hc         1 02X       0.006367
     17 H9           1.0280    -3.0440    -0.3620 hc         1 02X       0.006367
     18 H9A          2.7740    -2.8670    -0.2000 hc         1 02X       0.006367
     19 H9B          1.7260    -2.5220     1.1920 hc         1 02X       0.006367
     20 OXT         -2.7180     0.6290    -0.3350 o          1 02X      -0.766500
     21 O3           0.4130     2.1140     0.6490 o          1 02X      -0.763000
@<TRIPOS>BOND
     1     1     2 1   
     2     1     3 1   
     3     1    20 1   
     4     3     4 1   
     5     3    10 1   
     6     3    11 1   
     7     4     5 1   
     8     4     6 1   
     9     4    12 1   
    10     5     8 1   
    11     5     9 1   
    12     5    13 1   
    13     6     7 1   
    14     6    21 1   
    15     8    14 1   
    16     8    15 1   
    17     8    16 1   
    18     9    17 1   
    19     9    18 1   
    20     9    19 1   
@<TRIPOS>SUBSTRUCTURE
     1 02X         1 TEMP              0 ****  ****    0 ROOT
