@<TRIPOS>MOLECULE
02X
   21    20     1     0     0
SMALL
abcg2


@<TRIPOS>ATOM
      1 C3          -2.1470    -0.2070     0.1360 c          1 02X       0.730000
      2 O1          -2.1500     0.4550     1.1920 o          1 02X      -0.766500
      3 C4          -0.8350    -0.8860    -0.2760 c3         1 02X      -0.161400
      4 C5           0.4320    -0.2390     0.2720 c3         1 02X      -0.156700
      5 C6           1.6970    -0.8970    -0.3180 c3         1 02X      -0.048700
      6 C7           0.4420     1.2700    -0.0310 c          1 02X       0.744000
      7 O2           0.0740     1.6090    -1.1770 o          1 02X      -0.763000
      8 C8           2.9860    -0.2360     0.1670 c3         1 02X      -0.072100
      9 C9           1.7630    -2.3920    -0.0090 c3         1 02X      -0.072100
     10 H4          -0.9000    -1.9290     0.0590 hc         1 02X      -0.006800
     11 H4A         -0.7810    -0.9340    -1.3670 hc         1 02X      -0.006800
     12 H5           0.4650    -0.3730     1.3600 hc         1 02X       0.032700
     13 H6           1.6450    -0.7790    -1.4070 hc         1 02X       0.038700
     14 H8           3.0720    -0.2990     1.2540 hc         1 02X       0.006367
     15 H8A          3.8570    -0.7360    -0.2610 hc         1 02X       0.006367
     16 H8B          3.0470     0.8170    -0.1050 hc         1 02X       0.006367
     17 H9           0.9230    -2.9460    -0.4280 hc         1 02X       0.006367
     18 H9A          2.6760    -2.8330    -0.4130 hc         1 02X       0.006367
     19 H9B          1.7660    -2.5630     1.0710 hc         1 02X       0.006367
     20 OXT         -3.1370    -0.4090    -0.6040 o          1 02X      -0.766500
     21 O3           0.8530     2.0470     0.8570 o          1 02X      -0.763000
@<TRIPOS>BOND
     1     1     2 1   
     2     1     3 1   
     3     1    20 1   
     4     3     4 1   
     5     3    10 1   
     6     3    11 1   
     7     4     5 1   
     8     4     6 1   
     9     4    12 1   
    10     5     8 1   
    11     5     9 1   
    12     5    13 1   
    13     6     7 1   
    14     6    21 1   
    15     8    14 1   
    16     8    15 1   
    17     8    16 1   
    18     9    17 1   
    19     9    18 1   
    20     9    19 1   
@<TRIPOS>SUBSTRUCTURE
     1 02X         1 TEMP              0 ****  ****    0 ROOT
