@<TRIPOS>MOLECULE
02Y
   21    20     1     0     0
SMALL
bcc


@<TRIPOS>ATOM
      1 N            2.0170     1.8380    -0.2910 n8         1 02Y      -0.916800
      2 CA           2.0050     0.5440     0.3710 c3         1 02Y       0.012500
      3 C2           0.7160    -0.2070     0.0240 c3         1 02Y      -0.044400
      4 C3          -0.5140     0.5910     0.4190 c3         1 02Y      -0.158400
      5 C4          -1.8040    -0.0280     0.0120 c          1 02Y       0.590100
      6 O2          -1.9710    -1.0300    -0.6200 o          1 02Y      -0.459100
      7 C6          -3.0270     0.7890     0.5020 c3         1 02Y       0.077100
      8 H            2.7440     2.4110     0.1200 hn         1 02Y       0.345800
      9 HA           1.9990     0.7260     1.4520 h1         1 02Y       0.040700
     10 HB1          0.6950    -0.4100    -1.0520 hc         1 02Y       0.065700
     11 HB2          0.7170    -1.1720     0.5310 hc         1 02Y       0.065700
     12 H8          -0.5480     0.7500     1.5030 hc         1 02Y       0.087200
     13 H9          -0.4680     1.5970    -0.0130 hc         1 02Y       0.087200
     14 N2          -4.2060     0.1360     0.0580 n1         1 02Y      -0.059500
     15 N3          -5.0600    -0.4260    -0.3150 n1         1 02Y       0.325000
     16 H42         -3.0950     0.8340     1.5900 h1         1 02Y       0.148700
     17 H2           2.3170     1.6950    -1.2480 hn         1 02Y       0.345800
     18 H10         -3.0580     1.7980     0.0870 h1         1 02Y       0.148700
     19 C1           3.2160    -0.3740     0.0610 c          1 02Y       0.906600
     20 OXT          3.3320    -1.3850     0.7830 o          1 02Y      -0.804300
     21 O            3.9560    -0.0470    -0.8870 o          1 02Y      -0.804300
@<TRIPOS>BOND
     1     1     2 1   
     2     1     8 1   
     3     1    17 1   
     4     2     3 1   
     5     2     9 1   
     6     2    19 1   
     7     3     4 1   
     8     3    10 1   
     9     3    11 1   
    10     4     5 1   
    11     4    12 1   
    12     4    13 1   
    13     5     6 2   
    14     5     7 1   
    15     7    14 1   
    16     7    16 1   
    17     7    18 1   
    18    14    15 3   
    19    19    20 1   
    20    19    21 1   
@<TRIPOS>SUBSTRUCTURE
     1 02Y         1 TEMP              0 ****  ****    0 ROOT
