@<TRIPOS>MOLECULE
02Z
   26    27     1     0     0
SMALL
abcg2


@<TRIPOS>ATOM
      1 C1           3.8390    -0.0050    -0.0710 c          1 02Z       0.676700
      2 N1           0.2400     0.8830     0.0400 nc         1 02Z      -0.789000
      3 S1           1.3770    -1.4120    -0.2570 ss         1 02Z      -0.126400
      4 N2           1.9900     2.4000     0.1370 nv         1 02Z      -1.035900
      5 N3          -1.2400    -0.9420    -0.1390 nu         1 02Z      -0.919900
      6 C12          2.3940     0.0060    -0.0940 cd         1 02Z      -0.444600
      7 C13          1.5810     1.1220     0.0400 cc         1 02Z       0.673900
      8 C14         -0.0160    -0.3830    -0.0990 cd         1 02Z       0.776300
      9 C15         -2.4980    -0.3400    -0.0570 ca         1 02Z       0.299000
     10 C16         -3.6010    -1.1980    -0.1090 ca         1 02Z      -0.146000
     11 C17         -4.8880    -0.6950    -0.0390 ca         1 02Z      -0.083000
     12 C18         -5.1030     0.6730     0.0860 ca         1 02Z      -0.133000
     13 C19         -4.0080     1.5220     0.1380 ca         1 02Z      -0.083000
     14 C20         -2.7100     1.0340     0.0680 ca         1 02Z      -0.146000
     15 O21          4.4830     1.0440     0.0320 o          1 02Z      -0.655100
     16 N22          4.4600    -1.2000    -0.1790 nt         1 02Z      -0.604000
     17 HN2          1.3330     3.0780     0.4820 hn         1 02Z       0.504000
     18 HN2A         2.9680     2.5690     0.3010 hn         1 02Z       0.504000
     19 HN3         -1.2640    -1.9460    -0.2370 hn         1 02Z       0.506000
     20 H16         -3.4480    -2.2670    -0.2040 ha         1 02Z       0.129500
     21 H17         -5.7250    -1.3780    -0.0820 ha         1 02Z       0.114500
     22 H18         -6.1090     1.0670     0.1430 ha         1 02Z       0.117000
     23 H19         -4.1570     2.5900     0.2330 ha         1 02Z       0.114500
     24 H20         -1.8770     1.7160     0.1110 ha         1 02Z       0.129500
     25 HN22         3.9780    -2.0820    -0.1390 hn         1 02Z       0.309500
     26 HN2B         5.4620    -1.2360    -0.0960 hn         1 02Z       0.309500
@<TRIPOS>BOND
     1     1     6 1   
     2     1    15 2   
     3     1    16 1   
     4     2     7 1   
     5     2     8 2   
     6     3     6 1   
     7     3     8 1   
     8     4     7 1   
     9     4    17 1   
    10     4    18 1   
    11     5     8 1   
    12     5     9 1   
    13     5    19 1   
    14     6     7 2   
    15     9    10 ar  
    16     9    14 ar  
    17    10    11 ar  
    18    10    20 1   
    19    11    12 ar  
    20    11    21 1   
    21    12    13 ar  
    22    12    22 1   
    23    13    14 ar  
    24    13    23 1   
    25    14    24 1   
    26    16    25 1   
    27    16    26 1   
@<TRIPOS>SUBSTRUCTURE
     1 02Z         1 TEMP              0 ****  ****    0 ROOT
