@<TRIPOS>MOLECULE
02Z
   26    27     1     0     0
SMALL
No Charge or Current Charge


@<TRIPOS>ATOM
      1 C1           3.8830     0.0490    -0.0140 c          1 02Z       0.676700
      2 N1           0.2750     0.8270    -0.2500 nc         1 02Z      -0.789000
      3 S1           1.4580    -1.5030     0.0790 ss         1 02Z      -0.126400
      4 N2           1.9060     2.2860    -0.4520 nv         1 02Z      -1.035900
      5 N3          -1.2210    -0.9230    -0.0430 nu         1 02Z      -0.919900
      6 C12          2.4260    -0.0430    -0.0930 cd         1 02Z      -0.444600
      7 C13          1.6000     1.0180    -0.2710 cc         1 02Z       0.673900
      8 C14          0.0500    -0.4480    -0.0430 cd         1 02Z       0.776300
      9 C15         -2.4910    -0.3430     0.0200 ca         1 02Z       0.299000
     10 C16         -3.5940    -1.1100    -0.3970 ca         1 02Z      -0.146000
     11 C17         -4.8970    -0.5850    -0.3410 ca         1 02Z      -0.083000
     12 C18         -5.1080     0.7150     0.1460 ca         1 02Z      -0.133000
     13 C19         -4.0170     1.4840     0.5800 ca         1 02Z      -0.083000
     14 C20         -2.7150     0.9550     0.5210 ca         1 02Z      -0.146000
     15 O21          4.5240     1.0820    -0.0910 o          1 02Z      -0.655100
     16 N22          4.4990    -1.1290     0.1670 nt         1 02Z      -0.604000
     17 HN2          1.1720     2.9360    -0.2090 hn         1 02Z       0.504000
     18 HN2A         2.8570     2.5420    -0.2080 hn         1 02Z       0.504000
     19 HN3         -1.2240    -1.9320    -0.1520 hn         1 02Z       0.506000
     20 H16         -3.4440    -2.1170    -0.7760 ha         1 02Z       0.129500
     21 H17         -5.7420    -1.1860    -0.6730 ha         1 02Z       0.114500
     22 H18         -6.1160     1.1230     0.1920 ha         1 02Z       0.117000
     23 H19         -4.1800     2.4880     0.9680 ha         1 02Z       0.114500
     24 H20         -1.8900     1.5590     0.8830 ha         1 02Z       0.129500
     25 HN22         3.9470    -1.9690     0.2310 hn         1 02Z       0.309500
     26 HN2B         5.5040    -1.1570     0.2350 hn         1 02Z       0.309500
@<TRIPOS>BOND
     1     1     6 1   
     2     1    15 2   
     3     1    16 1   
     4     2     7 1   
     5     2     8 2   
     6     3     6 1   
     7     3     8 1   
     8     4     7 1   
     9     4    17 1   
    10     4    18 1   
    11     5     8 1   
    12     5     9 1   
    13     5    19 1   
    14     6     7 2   
    15     9    10 ar  
    16     9    14 ar  
    17    10    11 ar  
    18    10    20 1   
    19    11    12 ar  
    20    11    21 1   
    21    12    13 ar  
    22    12    22 1   
    23    13    14 ar  
    24    13    23 1   
    25    14    24 1   
    26    16    25 1   
    27    16    26 1   
@<TRIPOS>SUBSTRUCTURE
     1 02Z         1 TEMP              0 ****  ****    0 ROOT
