@<TRIPOS>MOLECULE
030
   24    25     1     0     0
SMALL
abcg2


@<TRIPOS>ATOM
      1 C21         -3.3010     0.1310     0.0710 c          1 030       0.823100
      2 O22         -3.3000    -0.3730     1.2010 o          1 030      -0.719500
      3 O23         -2.0810     0.5260    -0.4660 os         1 030      -0.534100
      4 C24         -0.9150     0.3530     0.3010 c5         1 030       0.218300
      5 C25         -0.3770    -1.0840     0.3400 c5         1 030      -0.106400
      6 C26          1.1170    -0.9280     0.6150 c5         1 030       0.153300
      7 O27          1.9070    -1.6400    -0.3250 os         1 030      -0.445000
      8 C28          3.1320    -0.9530    -0.4110 c5         1 030       0.117600
      9 C29          2.7700     0.5410    -0.4090 c5         1 030       0.132300
     10 C30          1.4620     0.5630     0.3900 c5         1 030      -0.101700
     11 C31          0.2370     1.1400    -0.3140 c5         1 030      -0.078400
     12 O41          3.7460     1.3550     0.1950 oh         1 030      -0.716000
     13 H24         -1.0740     0.7040     1.3270 h1         1 030       0.037700
     14 H25         -0.8900    -1.7040     1.0750 hc         1 030       0.068200
     15 H25A        -0.5230    -1.5420    -0.6420 hc         1 030       0.068200
     16 H26          1.3840    -1.2420     1.6320 h1         1 030       0.035700
     17 H28          3.7800    -1.1630     0.4540 h1         1 030       0.035200
     18 H28A         3.6520    -1.2780    -1.3140 h1         1 030       0.035200
     19 H29          2.5790     0.8700    -1.4380 h1         1 030       0.041700
     20 H30          1.6230     1.0670     1.3460 hc         1 030       0.068700
     21 H31          0.2870     0.9370    -1.3890 hc         1 030       0.047200
     22 H31A         0.1370     2.2180    -0.1830 hc         1 030       0.047200
     23 HO41         4.5210     1.3710    -0.3750 ho         1 030       0.491000
     24 OXT         -4.2480     0.3530    -0.6920 o          1 030      -0.719500
@<TRIPOS>BOND
     1     1     2 1   
     2     1     3 1   
     3     1    24 1   
     4     3     4 1   
     5     4     5 1   
     6     4    11 1   
     7     4    13 1   
     8     5     6 1   
     9     5    14 1   
    10     5    15 1   
    11     6     7 1   
    12     6    10 1   
    13     6    16 1   
    14     7     8 1   
    15     8     9 1   
    16     8    17 1   
    17     8    18 1   
    18     9    10 1   
    19     9    12 1   
    20     9    19 1   
    21    10    11 1   
    22    10    20 1   
    23    11    21 1   
    24    11    22 1   
    25    12    23 1   
@<TRIPOS>SUBSTRUCTURE
     1 030         1 TEMP              0 ****  ****    0 ROOT
