@<TRIPOS>MOLECULE
030
   24    25     1     0     0
SMALL
No Charge or Current Charge


@<TRIPOS>ATOM
      1 C21         -3.2260    -0.0040    -0.0760 c          1 030       0.823100
      2 O22         -3.3510    -0.1830     1.1260 o          1 030      -0.719500
      3 O23         -2.0210     0.3680    -0.6120 os         1 030      -0.534100
      4 C24         -0.8980     0.4280     0.3090 c5         1 030       0.218300
      5 C25         -0.4000    -1.0230     0.6290 c5         1 030      -0.106400
      6 C26          1.1560    -0.8940     0.6830 c5         1 030       0.153300
      7 O27          1.6990    -1.4840    -0.5090 os         1 030      -0.445000
      8 C28          2.9660    -0.8410    -0.7550 c5         1 030       0.117600
      9 C29          2.8090     0.6430    -0.2550 c5         1 030       0.132300
     10 C30          1.4430     0.6130     0.5060 c5         1 030      -0.101700
     11 C31          0.3010     1.0410    -0.4590 c5         1 030      -0.078400
     12 O41          3.8670     1.0280     0.6300 oh         1 030      -0.716000
     13 H24         -1.1400     1.0150     1.2070 h1         1 030       0.037700
     14 H25         -0.8000    -1.3720     1.5860 hc         1 030       0.068200
     15 H25A        -0.7160    -1.7450    -0.1330 hc         1 030       0.068200
     16 H26          1.6240    -1.3360     1.5740 h1         1 030       0.035700
     17 H28          3.7430    -1.3780    -0.1930 h1         1 030       0.035200
     18 H28A         3.2040    -0.9010    -1.8250 h1         1 030       0.035200
     19 H29          2.7670     1.3380    -1.1060 h1         1 030       0.041700
     20 H30          1.4390     1.1720     1.4510 hc         1 030       0.068700
     21 H31          0.4030     0.6220    -1.4670 hc         1 030       0.047200
     22 H31A         0.2210     2.1300    -0.5540 hc         1 030       0.047200
     23 HO41         4.6870     1.0970     0.0880 ho         1 030       0.491000
     24 OXT         -4.1530    -0.1120    -0.8580 o          1 030      -0.719500
@<TRIPOS>BOND
     1     1     2 1   
     2     1     3 1   
     3     1    24 1   
     4     3     4 1   
     5     4     5 1   
     6     4    11 1   
     7     4    13 1   
     8     5     6 1   
     9     5    14 1   
    10     5    15 1   
    11     6     7 1   
    12     6    10 1   
    13     6    16 1   
    14     7     8 1   
    15     8     9 1   
    16     8    17 1   
    17     8    18 1   
    18     9    10 1   
    19     9    12 1   
    20     9    19 1   
    21    10    11 1   
    22    10    20 1   
    23    11    21 1   
    24    11    22 1   
    25    12    23 1   
@<TRIPOS>SUBSTRUCTURE
     1 030         1 TEMP              0 ****  ****    0 ROOT
