@<TRIPOS>MOLECULE
031
   81    85     1     0     0
SMALL
bcc


@<TRIPOS>ATOM
      1 O39         -6.8260     1.2090    -3.3400 os         1 031      -0.311900
      2 C40         -8.2120     1.2020    -3.0490 c3         1 031       0.119700
      3 C2          -5.9570     1.3270    -2.3300 ca         1 031       0.197100
      4 C3          -6.3220     1.4300    -0.9880 ca         1 031      -0.211000
      5 C4          -5.3450     1.5570    -0.0150 ca         1 031       0.004000
      6 C5          -4.0050     1.5750    -0.3690 ca         1 031      -0.348500
      7 C6          -3.6320     1.4780    -1.7080 ca         1 031       0.004000
      8 C7          -4.6020     1.3510    -2.6800 ca         1 031      -0.211000
      9 S8          -2.7660     1.6810     0.8830 sy         1 031       1.338200
     10 O9          -1.6060     2.3190     0.2780 o          1 031      -0.610300
     11 O10         -3.3800     2.2690     2.0640 o          1 031      -0.610300
     12 N11         -2.3290     0.1410     1.2580 n3         1 031      -0.789500
     13 C12         -2.9450    -0.5820     2.3630 c3         1 031       0.210800
     14 C13         -3.7280    -1.8230     1.9390 c5         1 031       0.091700
     15 C14         -4.4850    -2.4290     3.1330 c5         1 031      -0.087400
     16 N15         -4.7980    -1.5210     1.0140 ns         1 031      -0.587900
     17 C45         -6.0370    -1.5150     1.5440 c          1 031       0.706500
     18 O46         -7.0710    -1.2680     0.9490 o          1 031      -0.629500
     19 C47         -5.8950    -1.8570     3.0140 c5         1 031      -0.174400
     20 C16         -1.3100    -0.5080     0.4450 c3         1 031       0.200800
     21 C17          0.1040    -0.3500     1.0020 c3         1 031       0.116100
     22 O18          0.2860    -1.0660     2.2050 oh         1 031      -0.587800
     23 C19          1.1670    -0.6980    -0.0480 c3         1 031       0.095700
     24 N20          2.4760    -0.4790     0.5200 ns         1 031      -0.554900
     25 C21          3.4930     0.0790    -0.1700 c          1 031       0.762100
     26 O22          3.3900     0.6770    -1.2200 o          1 031      -0.582000
     27 O23          4.6450    -0.0910     0.4880 os         1 031      -0.435900
     28 C24          7.0400    -0.2310     0.5780 c5         1 031      -0.077400
     29 C25          5.8400     0.3870    -0.1200 c5         1 031       0.169100
     30 C26          6.0530     1.9000     0.0140 c5         1 031      -0.104400
     31 C27          7.5710     2.0750     0.1020 c5         1 031       0.134100
     32 O28          7.9490     2.6460     1.3410 os         1 031      -0.398600
     33 C29          9.2780     2.2350     1.5850 c5         1 031       0.127400
     34 C30          9.3700     0.7820     1.0960 c5         1 031      -0.104400
     35 C31          8.1920     0.6620     0.1210 c5         1 031      -0.102700
     36 C32          1.0400    -2.1290    -0.6030 c3         1 031      -0.059100
     37 C33          1.8950    -2.0700    -2.9640 ca         1 031      -0.117000
     38 C34          2.8940    -2.2610    -3.9080 ca         1 031      -0.122500
     39 C35          4.1190    -2.7940    -3.5280 ca         1 031      -0.122000
     40 C36          4.3320    -3.1440    -2.2020 ca         1 031      -0.122500
     41 C37          3.3260    -2.9590    -1.2620 ca         1 031      -0.117000
     42 C38          2.0980    -2.4130    -1.6300 ca         1 031      -0.087300
     43 H40         -8.4910     0.3530    -2.4200 h1         1 031       0.049033
     44 H40A        -8.5280     2.1260    -2.5600 h1         1 031       0.049033
     45 H40B        -8.7250     1.1150    -4.0030 h1         1 031       0.049033
     46 H3          -7.3580     1.4140    -0.6790 ha         1 031       0.151000
     47 H4          -5.6490     1.6440     1.0190 ha         1 031       0.152000
     48 H6          -2.5930     1.5120    -2.0050 ha         1 031       0.152000
     49 H7          -4.3200     1.2820    -3.7230 ha         1 031       0.151000
     50 H12         -2.1680    -0.8790     3.0700 h1         1 031       0.076200
     51 H12A        -3.6070     0.0950     2.9010 h1         1 031       0.076200
     52 H13         -3.0540    -2.5590     1.4960 h1         1 031       0.056700
     53 H14         -4.5080    -3.5140     3.0390 hc         1 031       0.060200
     54 H14A        -4.0050    -2.1920     4.0820 hc         1 031       0.060200
     55 HN15        -4.6330    -1.2880     0.0460 hn         1 031       0.330500
     56 H47         -6.6750    -2.5480     3.3300 hc         1 031       0.079700
     57 H47A        -6.0220    -0.9410     3.5970 hc         1 031       0.079700
     58 H16         -1.5730    -1.5650     0.3610 h1         1 031       0.052700
     59 H16A        -1.3460    -0.1290    -0.5780 h1         1 031       0.052700
     60 H17          0.2520     0.7000     1.2630 h1         1 031       0.115700
     61 HO18         0.0860    -1.9970     2.0590 ho         1 031       0.393000
     62 H19          1.0470     0.0060    -0.8740 h1         1 031       0.099700
     63 HN20         2.7070    -0.9970     1.3550 hn         1 031       0.327500
     64 H24          6.9150    -0.1560     1.6630 hc         1 031       0.059700
     65 H24A         7.1840    -1.2840     0.3310 hc         1 031       0.059700
     66 H25          5.8460     0.1030    -1.1770 h1         1 031       0.061700
     67 H26          5.6140     2.4500    -0.8170 hc         1 031       0.076200
     68 H26A         5.5860     2.2600     0.9340 hc         1 031       0.076200
     69 H27          7.9690     2.6760    -0.7260 h1         1 031       0.049700
     70 H29          9.9880     2.8650     1.0340 h1         1 031       0.045700
     71 H29A         9.4850     2.3500     2.6490 h1         1 031       0.045700
     72 H30         10.3300     0.5860     0.6200 hc         1 031       0.052200
     73 H30A         9.2700     0.0760     1.9230 hc         1 031       0.052200
     74 H31          8.5180     0.3670    -0.8780 hc         1 031       0.061700
     75 H32          1.1120    -2.8550     0.2120 hc         1 031       0.045200
     76 H32A         0.0520    -2.2550    -1.0510 hc         1 031       0.045200
     77 H34          2.7160    -1.9920    -4.9410 ha         1 031       0.130500
     78 H35          4.9010    -2.9390    -4.2630 ha         1 031       0.131000
     79 H36          5.2820    -3.5630    -1.8950 ha         1 031       0.130500
     80 H37          3.5000    -3.2410    -0.2310 ha         1 031       0.126000
     81 H33          0.9450    -1.6470    -3.2680 ha         1 031       0.126000
@<TRIPOS>BOND
     1     1     2 1   
     2     1     3 1   
     3     2    43 1   
     4     2    44 1   
     5     2    45 1   
     6     3     4 ar  
     7     3     8 ar  
     8     4     5 ar  
     9     4    46 1   
    10     5     6 ar  
    11     5    47 1   
    12     6     7 ar  
    13     6     9 1   
    14     7     8 ar  
    15     7    48 1   
    16     8    49 1   
    17     9    10 2   
    18     9    11 2   
    19     9    12 1   
    20    12    13 1   
    21    12    20 1   
    22    13    14 1   
    23    13    50 1   
    24    13    51 1   
    25    14    15 1   
    26    14    16 1   
    27    14    52 1   
    28    15    19 1   
    29    15    53 1   
    30    15    54 1   
    31    16    17 1   
    32    16    55 1   
    33    17    18 2   
    34    17    19 1   
    35    19    56 1   
    36    19    57 1   
    37    20    21 1   
    38    20    58 1   
    39    20    59 1   
    40    21    22 1   
    41    21    23 1   
    42    21    60 1   
    43    22    61 1   
    44    23    24 1   
    45    23    36 1   
    46    23    62 1   
    47    24    25 1   
    48    24    63 1   
    49    25    26 2   
    50    25    27 1   
    51    27    29 1   
    52    28    29 1   
    53    28    35 1   
    54    28    64 1   
    55    28    65 1   
    56    29    30 1   
    57    29    66 1   
    58    30    31 1   
    59    30    67 1   
    60    30    68 1   
    61    31    32 1   
    62    31    35 1   
    63    31    69 1   
    64    32    33 1   
    65    33    34 1   
    66    33    70 1   
    67    33    71 1   
    68    34    35 1   
    69    34    72 1   
    70    34    73 1   
    71    35    74 1   
    72    36    42 1   
    73    36    75 1   
    74    36    76 1   
    75    37    38 ar  
    76    37    42 ar  
    77    37    81 1   
    78    38    39 ar  
    79    38    77 1   
    80    39    40 ar  
    81    39    78 1   
    82    40    41 ar  
    83    40    79 1   
    84    41    42 ar  
    85    41    80 1   
@<TRIPOS>SUBSTRUCTURE
     1 031         1 TEMP              0 ****  ****    0 ROOT
