@<TRIPOS>MOLECULE
031
   81    85     1     0     0
SMALL
No Charge or Current Charge


@<TRIPOS>ATOM
      1 O39         -8.1500     2.5930    -0.5420 os         1 031      -0.335100
      2 C40         -8.6610     3.6040     0.3450 c3         1 031       0.142900
      3 C2          -6.8010     2.3210    -0.6480 ca         1 031       0.197100
      4 C3          -5.8240     3.0110     0.1010 ca         1 031      -0.193000
      5 C4          -4.4640     2.6880    -0.0450 ca         1 031       0.022000
      6 C5          -4.0770     1.6750    -0.9430 ca         1 031      -0.348500
      7 C6          -5.0490     0.9860    -1.6910 ca         1 031       0.022000
      8 C7          -6.4060     1.3120    -1.5390 ca         1 031      -0.193000
      9 S8          -2.3490     1.2110    -1.1100 sy         1 031       1.196600
     10 O9          -2.0600     1.1580    -2.5460 o          1 031      -0.539500
     11 O10         -1.5180     1.9740    -0.1740 o          1 031      -0.539500
     12 N11         -2.3720    -0.4080    -0.5840 n3         1 031      -0.789500
     13 C12         -2.9600    -0.6180     0.7680 c3         1 031       0.210800
     14 C13         -3.4680    -2.0660     1.0310 c5         1 031       0.091700
     15 C14         -4.2840    -2.2300     2.3540 c5         1 031      -0.087400
     16 N15         -4.4760    -2.4980     0.0520 ns         1 031      -0.520900
     17 C45         -5.7740    -2.4220     0.4790 c          1 031       0.564000
     18 O46         -6.6970    -2.9850    -0.0850 o          1 031      -0.554000
     19 C47         -5.7090    -1.8380     1.8840 c5         1 031      -0.174400
     20 C16         -1.1500    -1.2030    -0.9010 c3         1 031       0.200800
     21 C17          0.1330    -0.9290    -0.0430 c3         1 031       0.139300
     22 O18          0.0280    -1.5250     1.2730 oh         1 031      -0.650000
     23 C19          1.4440    -1.4090    -0.7410 c3         1 031       0.095700
     24 N20          2.6160    -1.0120     0.0510 ns         1 031      -0.487900
     25 C21          3.7370    -0.4100    -0.4470 c          1 031       0.646100
     26 O22          3.8960    -0.0780    -1.6120 o          1 031      -0.533000
     27 O23          4.6310    -0.2550     0.5750 os         1 031      -0.459100
     28 C24          6.8140     0.3250     1.4240 c5         1 031      -0.077400
     29 C25          5.8700     0.3960     0.2030 c5         1 031       0.192300
     30 C26          5.6290     1.9330     0.0680 c5         1 031      -0.104400
     31 C27          6.9820     2.5620     0.5300 c5         1 031       0.157300
     32 O28          6.7580     3.2830     1.7530 os         1 031      -0.445000
     33 C29          8.0270     3.3340     2.4270 c5         1 031       0.150600
     34 C30          8.6290     1.9110     2.2320 c5         1 031      -0.104400
     35 C31          7.8720     1.3720     0.9710 c5         1 031      -0.102700
     36 C32          1.4930    -2.9310    -1.0580 c3         1 031      -0.059100
     37 C33          2.9080    -3.1320    -3.1620 ca         1 031      -0.099000
     38 C34          4.0920    -3.4990    -3.8250 ca         1 031      -0.104500
     39 C35          5.1490    -4.0820    -3.1060 ca         1 031      -0.104000
     40 C36          5.0200    -4.2980    -1.7230 ca         1 031      -0.104500
     41 C37          3.8360    -3.9320    -1.0610 ca         1 031      -0.099000
     42 C38          2.7730    -3.3450    -1.7760 ca         1 031      -0.087300
     43 H40         -8.4000     3.3780     1.3870 h1         1 031       0.049033
     44 H40A        -8.2580     4.5910     0.0860 h1         1 031       0.049033
     45 H40B        -9.7550     3.6540     0.2730 h1         1 031       0.049033
     46 H3          -6.0980     3.7950     0.8000 ha         1 031       0.133000
     47 H4          -3.7210     3.2230     0.5460 ha         1 031       0.134000
     48 H6          -4.7570     0.1910    -2.3770 ha         1 031       0.134000
     49 H7          -7.1580     0.7770    -2.1130 ha         1 031       0.133000
     50 H12         -2.2410    -0.3450     1.5520 h1         1 031       0.076200
     51 H12A        -3.8230     0.0420     0.9160 h1         1 031       0.076200
     52 H13         -2.6000    -2.7380     1.0390 h1         1 031       0.056700
     53 H14         -4.2590    -3.2710     2.6980 hc         1 031       0.060200
     54 H14A        -3.9100    -1.6050     3.1730 hc         1 031       0.060200
     55 HN15        -4.2820    -2.9130    -0.8510 hn         1 031       0.330500
     56 H47         -6.5320    -2.1980     2.5100 hc         1 031       0.079700
     57 H47A        -5.7710    -0.7480     1.7990 hc         1 031       0.079700
     58 H16         -1.3860    -2.2720    -0.8250 h1         1 031       0.052700
     59 H16A        -0.8870    -1.0440    -1.9560 h1         1 031       0.052700
     60 H17          0.2310     0.1590     0.0580 h1         1 031       0.115700
     61 HO18         0.0320    -2.4990     1.1600 ho         1 031       0.432000
     62 H19          1.4970    -0.8800    -1.7030 h1         1 031       0.099700
     63 HN20         2.6230    -1.2090     1.0430 hn         1 031       0.327500
     64 H24          6.2990     0.6050     2.3520 hc         1 031       0.059700
     65 H24A         7.2450    -0.6730     1.5640 hc         1 031       0.059700
     66 H25          6.3170    -0.0630    -0.6920 h1         1 031       0.061700
     67 H26          5.3920     2.2110    -0.9640 hc         1 031       0.076200
     68 H26A         4.7950     2.2700     0.6930 hc         1 031       0.076200
     69 H27          7.4600     3.2150    -0.2150 h1         1 031       0.049700
     70 H29          8.6500     4.1020     1.9480 h1         1 031       0.045700
     71 H29A         7.8860     3.6010     3.4830 h1         1 031       0.045700
     72 H30          9.7110     1.9660     2.0640 hc         1 031       0.052200
     73 H30A         8.4810     1.2850     3.1190 hc         1 031       0.052200
     74 H31          8.5320     1.0070     0.1740 hc         1 031       0.061700
     75 H32          1.3880    -3.5030    -0.1290 hc         1 031       0.045200
     76 H32A         0.6310    -3.2040    -1.6800 hc         1 031       0.045200
     77 H34          4.1900    -3.3300    -4.8950 ha         1 031       0.112500
     78 H35          6.0650    -4.3660    -3.6180 ha         1 031       0.113000
     79 H36          5.8380    -4.7480    -1.1650 ha         1 031       0.112500
     80 H37          3.7480    -4.0970     0.0110 ha         1 031       0.108000
     81 H33          2.0960    -2.6770    -3.7260 ha         1 031       0.108000
@<TRIPOS>BOND
     1     1     2 1   
     2     1     3 1   
     3     2    43 1   
     4     2    44 1   
     5     2    45 1   
     6     3     4 ar  
     7     3     8 ar  
     8     4     5 ar  
     9     4    46 1   
    10     5     6 ar  
    11     5    47 1   
    12     6     7 ar  
    13     6     9 1   
    14     7     8 ar  
    15     7    48 1   
    16     8    49 1   
    17     9    10 2   
    18     9    11 2   
    19     9    12 1   
    20    12    13 1   
    21    12    20 1   
    22    13    14 1   
    23    13    50 1   
    24    13    51 1   
    25    14    15 1   
    26    14    16 1   
    27    14    52 1   
    28    15    19 1   
    29    15    53 1   
    30    15    54 1   
    31    16    17 1   
    32    16    55 1   
    33    17    18 2   
    34    17    19 1   
    35    19    56 1   
    36    19    57 1   
    37    20    21 1   
    38    20    58 1   
    39    20    59 1   
    40    21    22 1   
    41    21    23 1   
    42    21    60 1   
    43    22    61 1   
    44    23    24 1   
    45    23    36 1   
    46    23    62 1   
    47    24    25 1   
    48    24    63 1   
    49    25    26 2   
    50    25    27 1   
    51    27    29 1   
    52    28    29 1   
    53    28    35 1   
    54    28    64 1   
    55    28    65 1   
    56    29    30 1   
    57    29    66 1   
    58    30    31 1   
    59    30    67 1   
    60    30    68 1   
    61    31    32 1   
    62    31    35 1   
    63    31    69 1   
    64    32    33 1   
    65    33    34 1   
    66    33    70 1   
    67    33    71 1   
    68    34    35 1   
    69    34    72 1   
    70    34    73 1   
    71    35    74 1   
    72    36    42 1   
    73    36    75 1   
    74    36    76 1   
    75    37    38 ar  
    76    37    42 ar  
    77    37    81 1   
    78    38    39 ar  
    79    38    77 1   
    80    39    40 ar  
    81    39    78 1   
    82    40    41 ar  
    83    40    79 1   
    84    41    42 ar  
    85    41    80 1   
@<TRIPOS>SUBSTRUCTURE
     1 031         1 TEMP              0 ****  ****    0 ROOT
