@<TRIPOS>MOLECULE
032
   51    54     1     0     0
SMALL
No Charge or Current Charge


@<TRIPOS>ATOM
      1 C10         -7.9350     1.1040    -0.8240 ca         1 032       0.122000
      2 C15          0.2010    -2.0260     0.9370 cc         1 032      -0.078100
      3 C17          0.0670     0.5000     0.6860 c          1 032       0.642900
      4 C20          2.4300     0.9400    -0.0370 ca         1 032       0.191000
      5 C21          3.8200     1.0500     0.2240 ca         1 032       0.181000
      6 C22          4.2720     0.8330     1.5460 ca         1 032      -0.017000
      7 C24          1.9930     0.3980     2.2860 ca         1 032       0.228000
      8 C01         -4.2860    -1.0800     0.0320 cp         1 032      -0.105000
      9 C02         -4.2790    -2.5020     0.1560 ca         1 032       0.366900
     10 N03         -3.1720    -3.2450     0.4210 nb         1 032      -0.671000
     11 C04         -3.0440    -0.4130     0.2010 ca         1 032      -0.012000
     12 N14         -0.7540    -3.0610     0.8500 na         1 032      -0.305400
     13 C16         -0.5290    -0.8680     0.7050 cd         1 032      -0.240400
     14 C05         -1.9210    -1.2060     0.4740 ca         1 032      -0.085800
     15 C06         -2.0170    -2.5750     0.5750 ca         1 032       0.353500
     16 C07         -5.5450    -0.3260    -0.2640 cp         1 032      -0.029000
     17 C18          1.5220     0.6090     0.9830 ca         1 032      -0.243600
     18 C23          3.3610     0.5080     2.5680 ca         1 032      -0.162000
     19 F26          1.9680     1.1350    -1.2960 f          1 032      -0.168000
     20 N27          4.7040     1.3760    -0.8250 nu         1 032      -0.879100
     21 S28          6.3100     0.9970    -1.0220 s6         1 032       1.183100
     22 O29          6.6070     1.3460    -2.4110 o          1 032      -0.521500
     23 O30          7.0290     1.6430     0.0790 o          1 032      -0.521500
     24 C31          6.3870    -0.7910    -0.8340 c3         1 032      -0.340400
     25 C32          7.8140    -1.3630    -1.0120 c3         1 032      -0.045400
     26 C33          7.8550    -2.8930    -0.8450 c3         1 032      -0.084100
     27 C08         -6.8010    -0.7810     0.2150 ca         1 032      -0.092000
     28 C09         -7.9840    -0.0730    -0.0620 ca         1 032      -0.101500
     29 C11         -6.7060     1.5750    -1.3090 ca         1 032      -0.101500
     30 C12         -5.5230     0.8670    -1.0320 ca         1 032      -0.092000
     31 Cl13        -9.4150     1.9890    -1.1710 cl         1 032      -0.200000
     32 H15          1.2570    -2.1970     1.1400 h4         1 032       0.223000
     33 H22          5.3240     0.9230     1.7970 ha         1 032       0.153000
     34 H02         -5.1990    -3.0680     0.0230 h4         1 032       0.026100
     35 H04         -2.9710     0.6690     0.1380 ha         1 032       0.145000
     36 H23          3.7160     0.3470     3.5830 ha         1 032       0.150000
     37 HN27         4.3240     1.4340    -1.7630 hn         1 032       0.505000
     38 H31          6.0050    -1.0150     0.1670 h1         1 032       0.093200
     39 H31A         5.7070    -1.2070    -1.5850 h1         1 032       0.093200
     40 H32          8.1970    -1.1030    -2.0070 hc         1 032       0.058200
     41 H32A         8.4910    -0.9070    -0.2780 hc         1 032       0.058200
     42 H33          7.5100    -3.1830     0.1540 hc         1 032       0.036367
     43 H33A         7.2140    -3.3810    -1.5890 hc         1 032       0.036367
     44 H33B         8.8780    -3.2650    -0.9770 hc         1 032       0.036367
     45 H08         -6.8620    -1.6840     0.8180 ha         1 032       0.121000
     46 H09         -8.9370    -0.4350     0.3150 ha         1 032       0.131500
     47 H11         -6.6700     2.4850    -1.9030 ha         1 032       0.131500
     48 H12         -4.5840     1.2430    -1.4300 ha         1 032       0.121000
     49 O19         -0.5880     1.5040     0.4440 o          1 032      -0.500100
     50 H18         -0.5590    -4.0470     0.9690 hn         1 032       0.369000
     51 F25          1.1320     0.0950     3.2820 f          1 032      -0.156000
@<TRIPOS>BOND
     1     1    28 ar  
     2     1    29 ar  
     3     1    31 1   
     4     2    12 1   
     5     2    13 2   
     6     2    32 1   
     7     3    13 1   
     8     3    17 1   
     9     3    49 2   
    10     4     5 ar  
    11     4    17 ar  
    12     4    19 1   
    13     5     6 ar  
    14     5    20 1   
    15     6    18 ar  
    16     6    33 1   
    17     7    17 ar  
    18     7    18 ar  
    19     7    51 1   
    20     8     9 ar  
    21     8    11 ar  
    22     8    16 1   
    23     9    10 ar  
    24     9    34 1   
    25    10    15 ar  
    26    11    14 ar  
    27    11    35 1   
    28    12    15 1   
    29    12    50 1   
    30    13    14 1   
    31    14    15 ar  
    32    16    27 ar  
    33    16    30 ar  
    34    18    36 1   
    35    20    21 1   
    36    20    37 1   
    37    21    22 2   
    38    21    23 2   
    39    21    24 1   
    40    24    25 1   
    41    24    38 1   
    42    24    39 1   
    43    25    26 1   
    44    25    40 1   
    45    25    41 1   
    46    26    42 1   
    47    26    43 1   
    48    26    44 1   
    49    27    28 ar  
    50    27    45 1   
    51    28    46 1   
    52    29    30 ar  
    53    29    47 1   
    54    30    48 1   
@<TRIPOS>SUBSTRUCTURE
     1 032         1 TEMP              0 ****  ****    0 ROOT
