@<TRIPOS>MOLECULE
032
   51    54     1     0     0
SMALL
bcc


@<TRIPOS>ATOM
      1 C10         -7.4430     0.2510    -1.1950 ca         1 032       0.030400
      2 C15          0.7510    -1.4930     1.1850 cc         1 032      -0.028100
      3 C17          0.4040     0.9860     0.9730 c          1 032       0.642900
      4 C20          2.8460     1.3320     0.4680 ca         1 032       0.155900
      5 C21          4.1620     1.6000     0.8220 ca         1 032       0.042600
      6 C22          4.4520     1.7650     2.1720 ca         1 032      -0.035000
      7 C24          2.1730     1.3770     2.7270 ca         1 032       0.192900
      8 C01         -3.6060    -1.2060    -0.0550 cp         1 032      -0.170300
      9 C02         -3.3800    -2.5900     0.0570 ca         1 032       0.432200
     10 N03         -2.2260    -3.1360     0.4030 nb         1 032      -0.671000
     11 C04         -2.5530    -0.3340     0.2030 ca         1 032      -0.030000
     12 N14          0.0260    -2.6110     1.0230 na         1 032      -0.255100
     13 C16         -0.0280    -0.3830     0.9140 cd         1 032      -0.240400
     14 C05         -1.3280    -0.8800     0.5620 ca         1 032      -0.151100
     15 C06         -1.2510    -2.2820     0.6440 ca         1 032       0.418800
     16 C07         -4.9350    -0.7040    -0.4470 cp         1 032      -0.029000
     17 C18          1.8310     1.2200     1.3960 ca         1 032      -0.243600
     18 C23          3.4640     1.6430     3.1350 ca         1 032      -0.180000
     19 F26          2.5440     1.1640    -0.8230 f          1 032      -0.132900
     20 N27          5.1750     1.7140    -0.1520 nu         1 032      -0.685500
     21 S28          6.2320     0.4470    -0.3890 s6         1 032       1.213900
     22 O29          7.2120     0.9280    -1.3470 o          1 032      -0.592300
     23 O30          6.6610     0.0080     0.9280 o          1 032      -0.592300
     24 C31          5.2880    -0.8720    -1.1430 c3         1 032      -0.229600
     25 C32          6.1410    -2.1150    -1.3640 c3         1 032      -0.045400
     26 C33          5.3370    -3.1990    -2.0680 c3         1 032      -0.084100
     27 C08         -6.1010    -1.3240     0.0030 ca         1 032      -0.110000
     28 C09         -7.3520    -0.8580    -0.3680 ca         1 032      -0.119500
     29 C11         -6.3030     0.8920    -1.6540 ca         1 032      -0.119500
     30 C12         -5.0590     0.4090    -1.2800 ca         1 032      -0.110000
     31 CL13        -9.0020     0.8430    -1.6620 cl         1 032      -0.108400
     32 H15          1.7860    -1.5480     1.4850 h4         1 032       0.173000
     33 H22          5.4640     1.9970     2.4690 ha         1 032       0.171000
     34 H02         -4.1830    -3.2830    -0.1650 h4         1 032       0.026100
     35 H04         -2.6920     0.7370     0.1430 ha         1 032       0.163000
     36 H23          3.6930     1.7670     4.1850 ha         1 032       0.168000
     37 HN27         4.9290     2.1930    -1.0120 hn         1 032       0.449800
     38 H31          4.4460    -1.0880    -0.4820 h1         1 032       0.093200
     39 H31A         4.8990    -0.4790    -2.0840 h1         1 032       0.093200
     40 H32          7.0160    -1.8590    -1.9640 hc         1 032       0.058200
     41 H32A         6.5060    -2.4860    -0.4050 hc         1 032       0.058200
     42 H33          4.4560    -3.4800    -1.4900 hc         1 032       0.036367
     43 H33A         5.0000    -2.8660    -3.0510 hc         1 032       0.036367
     44 H33B         5.9420    -4.0930    -2.2080 hc         1 032       0.036367
     45 H08         -6.0430    -2.1750     0.6690 ha         1 032       0.139000
     46 H09         -8.2440    -1.3510    -0.0070 ha         1 032       0.149500
     47 H11         -6.3780     1.7520    -2.3050 ha         1 032       0.149500
     48 H12         -4.1750     0.9020    -1.6630 ha         1 032       0.139000
     49 O19         -0.3090     1.9330     0.7060 o          1 032      -0.500100
     50 H18          0.3670    -3.5510     1.1620 hn         1 032       0.318700
     51 F25          1.2020     1.2620     3.6370 f          1 032      -0.120900
@<TRIPOS>BOND
     1     1    28 ar  
     2     1    29 ar  
     3     1    31 1   
     4     2    12 1   
     5     2    13 2   
     6     2    32 1   
     7     3    13 1   
     8     3    17 1   
     9     3    49 2   
    10     4     5 ar  
    11     4    17 ar  
    12     4    19 1   
    13     5     6 ar  
    14     5    20 1   
    15     6    18 ar  
    16     6    33 1   
    17     7    17 ar  
    18     7    18 ar  
    19     7    51 1   
    20     8     9 ar  
    21     8    11 ar  
    22     8    16 1   
    23     9    10 ar  
    24     9    34 1   
    25    10    15 ar  
    26    11    14 ar  
    27    11    35 1   
    28    12    15 1   
    29    12    50 1   
    30    13    14 1   
    31    14    15 ar  
    32    16    27 ar  
    33    16    30 ar  
    34    18    36 1   
    35    20    21 1   
    36    20    37 1   
    37    21    22 2   
    38    21    23 2   
    39    21    24 1   
    40    24    25 1   
    41    24    38 1   
    42    24    39 1   
    43    25    26 1   
    44    25    40 1   
    45    25    41 1   
    46    26    42 1   
    47    26    43 1   
    48    26    44 1   
    49    27    28 ar  
    50    27    45 1   
    51    28    46 1   
    52    29    30 ar  
    53    29    47 1   
    54    30    48 1   
@<TRIPOS>SUBSTRUCTURE
     1 032         1 TEMP              0 ****  ****    0 ROOT
