@<TRIPOS>MOLECULE
033
   58    61     1     0     0
SMALL
No Charge or Current Charge


@<TRIPOS>ATOM
      1 C1          10.7550    -1.1970    -0.3770 ca         1 033      -0.136000
      2 C2          10.0660    -0.7090     0.7570 ca         1 033      -0.051000
      3 C3           8.6830    -0.5200     0.6450 ca         1 033      -0.129800
      4 C4           8.0150    -0.7980    -0.5260 ca         1 033       0.076100
      5 C5           8.6650    -1.2810    -1.6650 ca         1 033      -0.107000
      6 C6          10.0600    -1.4810    -1.5810 ca         1 033      -0.085000
      7 C7          -6.5120    -2.2210    -0.3830 c3         1 033      -0.028700
      8 C8          -8.0340    -2.4990    -0.4770 c3         1 033      -0.075100
      9 C9          -5.7100    -3.2740    -1.1840 c3         1 033      -0.075100
     10 C11          7.7090    -0.0430     1.6080 cc         1 033      -0.153200
     11 C12          6.4990    -0.0720     0.9220 cd         1 033      -0.057100
     12 O13          6.6900    -0.5280    -0.3640 os         1 033      -0.177200
     13 C14          5.1620     0.3220     1.4540 c          1 033       0.647300
     14 N15          4.1570     0.1730     0.5060 ns         1 033      -0.128000
     15 C16          2.7560     0.4150     0.5420 ca         1 033      -0.034000
     16 O17          4.9920     0.7290     2.6000 o          1 033      -0.574100
     17 C18          2.0160     0.1390    -0.6220 ca         1 033      -0.149500
     18 C19          0.6280     0.3550    -0.6610 ca         1 033      -0.072500
     19 C20         -0.0670     0.8540     0.4670 cp         1 033      -0.046000
     20 C21          0.6880     1.1270     1.6340 ca         1 033      -0.072500
     21 C22          2.0770     0.9130     1.6740 ca         1 033      -0.149500
     22 C27         -1.5470     1.0830     0.4290 cp         1 033      -0.001000
     23 C28         -2.3540     0.8620     1.5730 ca         1 033      -0.122500
     24 C29         -3.7430     1.0730     1.5400 ca         1 033      -0.006500
     25 C30         -4.3600     1.5160     0.3550 ca         1 033      -0.281500
     26 C31         -3.5790     1.7400    -0.7950 ca         1 033      -0.006500
     27 C32         -2.1900     1.5250    -0.7550 ca         1 033      -0.122500
     28 S37         -6.1420     1.7700     0.3130 sy         1 033       1.136600
     29 N38         -6.7170     0.2040     0.2140 n7         1 033      -0.842300
     30 O39         -6.5360     2.4330    -0.9300 o          1 033      -0.570500
     31 O40         -6.5800     2.2460     1.6280 o          1 033      -0.570500
     32 C41         -6.0960    -0.7630    -0.7580 c3         1 033       0.055500
     33 C42         -6.3680    -0.4220    -2.2770 c          1 033       0.710000
     34 O45         -7.5090    -0.1280    -2.6140 o          1 033      -0.714000
     35 O50         -5.4140    -0.3770    -3.0440 o          1 033      -0.714000
     36 H1          11.8300    -1.3550    -0.3250 ha         1 033       0.114000
     37 H2          10.5920    -0.4890     1.6830 ha         1 033       0.121000
     38 H5           8.1150    -1.4930    -2.5790 ha         1 033       0.134000
     39 H6          10.6060    -1.8560    -2.4440 ha         1 033       0.115000
     40 H7          -6.2350    -2.3620     0.6690 hc         1 033       0.031700
     41 H81         -8.3860    -2.4430    -1.5140 hc         1 033       0.027367
     42 H82         -8.2610    -3.5040    -0.1020 hc         1 033       0.027367
     43 H83         -8.6090    -1.7850     0.1240 hc         1 033       0.027367
     44 H91         -5.9610    -3.2360    -2.2500 hc         1 033       0.027367
     45 H92         -4.6320    -3.1030    -1.0770 hc         1 033       0.027367
     46 H93         -5.9280    -4.2840    -0.8190 hc         1 033       0.027367
     47 H11          7.8660     0.2720     2.6380 ha         1 033       0.230000
     48 H15          4.4900    -0.1770    -0.3830 hn         1 033       0.165000
     49 H18          2.5180    -0.2480    -1.5070 ha         1 033       0.125000
     50 H19          0.0850     0.1180    -1.5730 ha         1 033       0.124000
     51 H21          0.1940     1.5250     2.5180 ha         1 033       0.124000
     52 H22          2.6040     1.1450     2.5940 ha         1 033       0.125000
     53 H28         -1.9020     0.5060     2.4950 ha         1 033       0.108500
     54 H29         -4.3360     0.8840     2.4330 ha         1 033       0.136500
     55 H31         -4.0400     2.0770    -1.7220 ha         1 033       0.136500
     56 H32         -1.6070     1.7170    -1.6510 ha         1 033       0.108500
     57 H38         -7.6670     0.3960    -0.1040 hn         1 033       0.521000
     58 H41         -5.0060    -0.7370    -0.6330 h1         1 033       0.042700
@<TRIPOS>BOND
     1     1     2 ar  
     2     1     6 ar  
     3     1    36 1   
     4     2     3 ar  
     5     2    37 1   
     6     3     4 ar  
     7     3    10 1   
     8     4     5 ar  
     9     4    12 1   
    10     5     6 ar  
    11     5    38 1   
    12     6    39 1   
    13     7     8 1   
    14     7     9 1   
    15     7    32 1   
    16     7    40 1   
    17     8    41 1   
    18     8    42 1   
    19     8    43 1   
    20     9    44 1   
    21     9    45 1   
    22     9    46 1   
    23    10    11 2   
    24    10    47 1   
    25    11    12 1   
    26    11    13 1   
    27    13    14 1   
    28    13    16 2   
    29    14    15 1   
    30    14    48 1   
    31    15    17 ar  
    32    15    21 ar  
    33    17    18 ar  
    34    17    49 1   
    35    18    19 ar  
    36    18    50 1   
    37    19    20 ar  
    38    19    22 1   
    39    20    21 ar  
    40    20    51 1   
    41    21    52 1   
    42    22    23 ar  
    43    22    27 ar  
    44    23    24 ar  
    45    23    53 1   
    46    24    25 ar  
    47    24    54 1   
    48    25    26 ar  
    49    25    28 1   
    50    26    27 ar  
    51    26    55 1   
    52    27    56 1   
    53    28    29 1   
    54    28    30 2   
    55    28    31 2   
    56    29    32 1   
    57    29    57 1   
    58    32    33 1   
    59    32    58 1   
    60    33    34 1   
    61    33    35 1   
@<TRIPOS>SUBSTRUCTURE
     1 033         1 TEMP              0 ****  ****    0 ROOT
