@<TRIPOS>MOLECULE
033
   58    61     1     0     0
SMALL
bcc


@<TRIPOS>ATOM
      1 C1          10.7920    -0.8590    -0.5020 ca         1 033      -0.154000
      2 C2          10.1470    -0.2880     0.5780 ca         1 033      -0.069000
      3 C3           8.7560    -0.1670     0.5240 ca         1 033      -0.129800
      4 C4           8.0730    -0.6230    -0.6070 ca         1 033       0.076100
      5 C5           8.6990    -1.1990    -1.6990 ca         1 033      -0.125000
      6 C6          10.0770    -1.3080    -1.6240 ca         1 033      -0.103000
      7 C7          -7.3410    -1.9030    -0.3350 c3         1 033      -0.028700
      8 C8          -8.3690    -1.8600    -1.4590 c3         1 033      -0.075100
      9 C9          -6.9800    -3.3370     0.0330 c3         1 033      -0.075100
     10 C11          7.7470     0.3470     1.4000 cc         1 033      -0.103200
     11 C12          6.5720     0.1700     0.7540 cd         1 033      -0.057100
     12 O13          6.7470    -0.4160    -0.4620 os         1 033      -0.177200
     13 C14          5.2120     0.5180     1.1990 c          1 033       0.714300
     14 N15          4.2310     0.2350     0.3080 ns         1 033      -0.454100
     15 C16          2.8550     0.4400     0.4280 ca         1 033       0.058600
     16 O17          5.0450     1.0220     2.2960 o          1 033      -0.574100
     17 C18          2.0840     0.1910    -0.7100 ca         1 033      -0.167500
     18 C19          0.7140     0.3510    -0.6860 ca         1 033      -0.090500
     19 C20          0.0570     0.7600     0.4760 cp         1 033      -0.046000
     20 C21          0.8350     1.0030     1.6060 ca         1 033      -0.090500
     21 C22          2.2130     0.8540     1.5960 ca         1 033      -0.167500
     22 C27         -1.4070     0.9180     0.5050 cp         1 033      -0.001000
     23 C28         -2.1420     0.5590     1.6340 ca         1 033      -0.140500
     24 C29         -3.5220     0.6900     1.6600 ca         1 033      -0.024500
     25 C30         -4.1780     1.1920     0.5470 ca         1 033      -0.281500
     26 C31         -3.4680     1.5600    -0.5900 ca         1 033      -0.024500
     27 C32         -2.0930     1.4210    -0.6050 ca         1 033      -0.140500
     28 S37         -5.9470     1.3540     0.5380 sy         1 033       1.278200
     29 N38         -6.4950     0.3820    -0.6490 n7         1 033      -0.787100
     30 O39         -6.2770     2.7160     0.1440 o          1 033      -0.641300
     31 O40         -6.4340     0.8440     1.8120 o          1 033      -0.641300
     32 C41         -6.1120    -1.0330    -0.6470 c3         1 033       0.055500
     33 C42         -5.4510    -1.3430    -2.0160 c          1 033       0.920600
     34 O45         -5.4920    -0.4290    -2.8680 o          1 033      -0.819300
     35 O50         -4.9420    -2.4660    -2.1460 o          1 033      -0.819300
     36 H1          11.8680    -0.9650    -0.4880 ha         1 033       0.132000
     37 H2          10.7010     0.0570     1.4400 ha         1 033       0.139000
     38 H5           8.1460    -1.5450    -2.5620 ha         1 033       0.152000
     39 H6          10.6160    -1.7500    -2.4510 ha         1 033       0.133000
     40 H7          -7.7950    -1.4470     0.5510 hc         1 033       0.031700
     41 H81         -8.0040    -2.3650    -2.3550 hc         1 033       0.027367
     42 H82         -9.2890    -2.3630    -1.1560 hc         1 033       0.027367
     43 H83         -8.6300    -0.8360    -1.7300 hc         1 033       0.027367
     44 H91         -6.5740    -3.8820    -0.8170 hc         1 033       0.027367
     45 H92         -6.2400    -3.3690     0.8350 hc         1 033       0.027367
     46 H93         -7.8650    -3.8700     0.3840 hc         1 033       0.027367
     47 H11          7.8820     0.7890     2.3730 ha         1 033       0.180000
     48 H15          4.5200    -0.1540    -0.5780 hn         1 033       0.331500
     49 H18          2.5630    -0.1410    -1.6240 ha         1 033       0.143000
     50 H19          0.1480     0.1300    -1.5830 ha         1 033       0.142000
     51 H21          0.3660     1.3410     2.5210 ha         1 033       0.142000
     52 H22          2.7680     1.0650     2.4950 ha         1 033       0.143000
     53 H28         -1.6410     0.1460     2.4990 ha         1 033       0.126500
     54 H29         -4.0720     0.3880     2.5400 ha         1 033       0.154500
     55 H31         -3.9710     1.9540    -1.4630 ha         1 033       0.154500
     56 H32         -1.5450     1.7260    -1.4870 ha         1 033       0.126500
     57 H38         -6.3120     0.7540    -1.5870 hn         1 033       0.465800
     58 H41         -5.3580    -1.2240     0.1280 h1         1 033       0.042700
@<TRIPOS>BOND
     1     1     2 ar  
     2     1     6 ar  
     3     1    36 1   
     4     2     3 ar  
     5     2    37 1   
     6     3     4 ar  
     7     3    10 1   
     8     4     5 ar  
     9     4    12 1   
    10     5     6 ar  
    11     5    38 1   
    12     6    39 1   
    13     7     8 1   
    14     7     9 1   
    15     7    32 1   
    16     7    40 1   
    17     8    41 1   
    18     8    42 1   
    19     8    43 1   
    20     9    44 1   
    21     9    45 1   
    22     9    46 1   
    23    10    11 2   
    24    10    47 1   
    25    11    12 1   
    26    11    13 1   
    27    13    14 1   
    28    13    16 2   
    29    14    15 1   
    30    14    48 1   
    31    15    17 ar  
    32    15    21 ar  
    33    17    18 ar  
    34    17    49 1   
    35    18    19 ar  
    36    18    50 1   
    37    19    20 ar  
    38    19    22 1   
    39    20    21 ar  
    40    20    51 1   
    41    21    52 1   
    42    22    23 ar  
    43    22    27 ar  
    44    23    24 ar  
    45    23    53 1   
    46    24    25 ar  
    47    24    54 1   
    48    25    26 ar  
    49    25    28 1   
    50    26    27 ar  
    51    26    55 1   
    52    27    56 1   
    53    28    29 1   
    54    28    30 2   
    55    28    31 2   
    56    29    32 1   
    57    29    57 1   
    58    32    33 1   
    59    32    58 1   
    60    33    34 1   
    61    33    35 1   
@<TRIPOS>SUBSTRUCTURE
     1 033         1 TEMP              0 ****  ****    0 ROOT
