@<TRIPOS>MOLECULE
034
   57    61     1     0     0
SMALL
abcg2


@<TRIPOS>ATOM
      1 C1           6.0570    -3.7760    -1.8760 c3         1 034      -0.087100
      2 C2           5.1890    -3.6750    -0.6190 c3         1 034      -0.099000
      3 C3           5.7790    -4.4850     0.5370 c3         1 034      -0.087100
      4 CL3          3.2790     0.3330     2.9740 cl         1 034      -0.185000
      5 C4           4.9710    -2.2520    -0.2360 cc         1 034       0.199300
      6 O5           6.0200    -1.5540     0.2130 os         1 034      -0.071700
      7 N6           5.6520    -0.2760     0.5020 nc         1 034      -0.340300
      8 CL6          4.0430     1.4920    -2.2270 cl         1 034      -0.185000
      9 C7           4.3870    -0.2020     0.2180 cd         1 034       0.347500
     10 C8           3.8860    -1.4400    -0.2620 cd         1 034      -0.202300
     11 C9           2.4890    -1.7020    -0.6830 c3         1 034       0.246900
     12 O10          1.6610    -1.3750     0.4190 os         1 034      -0.346100
     13 C11          0.3470    -1.1590     0.1980 ca         1 034       0.112100
     14 C12         -0.3250    -1.5320    -0.9620 ca         1 034      -0.169000
     15 C13         -1.6820    -1.2650    -1.0880 ca         1 034      -0.081000
     16 C14         -2.4060    -0.6330    -0.0790 cp         1 034      -0.019000
     17 C15         -1.7110    -0.2770     1.0810 ca         1 034      -0.081000
     18 C16         -0.3590    -0.5280     1.2220 ca         1 034      -0.169000
     19 C17         -3.8450    -0.3410    -0.2350 cp         1 034      -0.102000
     20 C18         -4.6820    -1.2540    -0.9170 ca         1 034      -0.112000
     21 C19         -6.0280    -1.0220    -1.0990 ca         1 034      -0.128000
     22 C20         -6.5580     0.1600    -0.5840 ca         1 034      -0.066200
     23 N21         -7.8230     0.6570    -0.6120 na         1 034      -0.193700
     24 C22         -7.8640     1.8670     0.0260 cc         1 034      -0.090300
     25 C23         -6.6090     2.1720     0.4840 cd         1 034      -0.263200
     26 C24         -5.7520     1.0950     0.1080 ca         1 034      -0.101800
     27 C25         -4.3890     0.8290     0.2750 ca         1 034      -0.051000
     28 C26         -9.1520     2.6350     0.1360 c          1 034       0.727200
     29 O27         -9.0940     3.7230     0.7350 o          1 034      -0.710500
     30 O28        -10.1480     2.0980    -0.3880 o          1 034      -0.710500
     31 C29          3.6190     1.0400     0.3950 ca         1 034      -0.119500
     32 C30          3.0520     1.3800     1.6210 ca         1 034       0.153000
     33 C32          2.2970     2.5280     1.7820 ca         1 034      -0.105000
     34 C33          2.0960     3.3610     0.6930 ca         1 034      -0.079000
     35 C34          2.6360     3.0520    -0.5450 ca         1 034      -0.105000
     36 C35          3.3860     1.8950    -0.6780 ca         1 034       0.153000
     37 H1           6.1420    -4.8180    -2.1830 hc         1 034       0.043033
     38 H1A          5.6250    -3.2170    -2.7060 hc         1 034       0.043033
     39 H1B          7.0640    -3.3970    -1.6960 hc         1 034       0.043033
     40 H2           4.2020    -4.0830    -0.8550 hc         1 034       0.065700
     41 H3           6.7770    -4.1350     0.8020 hc         1 034       0.043033
     42 H3A          5.1500    -4.4350     1.4250 hc         1 034       0.043033
     43 H3B          5.8610    -5.5320     0.2450 hc         1 034       0.043033
     44 H9           2.2350    -1.0790    -1.5480 h1         1 034       0.044200
     45 H9A          2.3590    -2.7460    -0.9860 h1         1 034       0.044200
     46 H12          0.1860    -2.0250    -1.7780 ha         1 034       0.111500
     47 H13         -2.1750    -1.5480    -2.0100 ha         1 034       0.116500
     48 H15         -2.2380     0.2000     1.8990 ha         1 034       0.116500
     49 H16          0.1600    -0.2400     2.1270 ha         1 034       0.111500
     50 H18         -4.2590    -2.1770    -1.2930 ha         1 034       0.090000
     51 H19         -6.6490    -1.7410    -1.6190 ha         1 034       0.100000
     52 H23         -6.3320     3.0630     1.0250 ha         1 034       0.206000
     53 H25         -3.7580     1.5480     0.7840 ha         1 034       0.101000
     54 H32          1.8690     2.7700     2.7450 ha         1 034       0.135500
     55 H33          1.5080     4.2610     0.8090 ha         1 034       0.126000
     56 H34          2.4760     3.7000    -1.3950 ha         1 034       0.135500
     57 HN21        -8.6280     0.2270    -1.0370 hn         1 034       0.361000
@<TRIPOS>BOND
     1     1     2 1   
     2     1    37 1   
     3     1    38 1   
     4     1    39 1   
     5     2     3 1   
     6     2     5 1   
     7     2    40 1   
     8     3    41 1   
     9     3    42 1   
    10     3    43 1   
    11     4    32 1   
    12     5     6 1   
    13     5    10 2   
    14     6     7 1   
    15     7     9 2   
    16     8    36 1   
    17     9    10 1   
    18     9    31 1   
    19    10    11 1   
    20    11    12 1   
    21    11    44 1   
    22    11    45 1   
    23    12    13 1   
    24    13    14 ar  
    25    13    18 ar  
    26    14    15 ar  
    27    14    46 1   
    28    15    16 ar  
    29    15    47 1   
    30    16    17 ar  
    31    16    19 1   
    32    17    18 ar  
    33    17    48 1   
    34    18    49 1   
    35    19    20 ar  
    36    19    27 ar  
    37    20    21 ar  
    38    20    50 1   
    39    21    22 ar  
    40    21    51 1   
    41    22    23 1   
    42    22    26 ar  
    43    23    24 1   
    44    23    57 1   
    45    24    25 2   
    46    24    28 1   
    47    25    26 1   
    48    25    52 1   
    49    26    27 ar  
    50    27    53 1   
    51    28    29 1   
    52    28    30 1   
    53    31    32 ar  
    54    31    36 ar  
    55    32    33 ar  
    56    33    34 ar  
    57    33    54 1   
    58    34    35 ar  
    59    34    55 1   
    60    35    36 ar  
    61    35    56 1   
@<TRIPOS>SUBSTRUCTURE
     1 034         1 TEMP              0 ****  ****    0 ROOT
