@<TRIPOS>MOLECULE
034
   57    61     1     0     0
SMALL
No Charge or Current Charge


@<TRIPOS>ATOM
      1 C1           6.0350    -4.0300    -1.6900 c3         1 034      -0.087100
      2 C2           4.9860    -3.7400    -0.5940 c3         1 034      -0.099000
      3 C3           5.1710    -4.6630     0.6310 c3         1 034      -0.087100
      4 Cl3          3.5410     0.5130     3.0490 cl         1 034      -0.185000
      5 C4           4.9850    -2.2820    -0.1950 cc         1 034       0.199300
      6 O5           6.1240    -1.7380     0.3520 os         1 034      -0.071700
      7 N6           5.8760    -0.3520     0.6450 nc         1 034      -0.340300
      8 Cl6          4.4920     1.5130    -2.2980 cl         1 034      -0.185000
      9 C7           4.6280    -0.1600     0.2600 cd         1 034       0.347500
     10 C8           4.0240    -1.3180    -0.2680 cd         1 034      -0.202300
     11 C9           2.6170    -1.4190    -0.7860 c3         1 034       0.246900
     12 O10          1.7320    -0.9950     0.2620 os         1 034      -0.346100
     13 C11          0.3740    -0.8600     0.0730 ca         1 034       0.112100
     14 C12         -0.2650    -1.2060    -1.1360 ca         1 034      -0.169000
     15 C13         -1.6550    -1.0390    -1.2680 ca         1 034      -0.081000
     16 C14         -2.4400    -0.5260    -0.2040 cp         1 034      -0.019000
     17 C15         -1.7750    -0.1860     1.0010 ca         1 034      -0.081000
     18 C16         -0.3860    -0.3530     1.1350 ca         1 034      -0.169000
     19 C17         -3.9210    -0.3480    -0.3480 cp         1 034      -0.102000
     20 C18         -4.7000    -1.2580    -1.1310 ca         1 034      -0.112000
     21 C19         -6.0960    -1.1020    -1.2760 ca         1 034      -0.128000
     22 C20         -6.7040    -0.0220    -0.6270 ca         1 034      -0.066200
     23 N21         -8.0390     0.3530    -0.6090 na         1 034      -0.193700
     24 C22         -8.2120     1.5180     0.1750 cc         1 034      -0.090300
     25 C23         -6.9250     1.8170     0.6210 cd         1 034      -0.263200
     26 C24         -5.9770     0.8560     0.1220 ca         1 034      -0.101800
     27 C25         -4.5930     0.7340     0.2910 ca         1 034      -0.051000
     28 C26         -9.4540     2.2900     0.4870 c          1 034       0.727200
     29 O27         -9.3770     3.2830     1.1970 o          1 034      -0.710500
     30 O28        -10.5110     1.8940     0.0150 o          1 034      -0.710500
     31 C29          3.9860     1.1490     0.3940 ca         1 034      -0.119500
     32 C30          3.4350     1.5520     1.6280 ca         1 034       0.153000
     33 C32          2.7780     2.7890     1.7420 ca         1 034      -0.105000
     34 C33          2.6550     3.6290     0.6230 ca         1 034      -0.079000
     35 C34          3.1890     3.2260    -0.6120 ca         1 034      -0.105000
     36 C35          3.8460     1.9900    -0.7280 ca         1 034       0.153000
     37 H1           5.9780    -5.0760    -2.0160 hc         1 034       0.043033
     38 H1A          5.8640    -3.3920    -2.5660 hc         1 034       0.043033
     39 H1B          7.0510    -3.8410    -1.3220 hc         1 034       0.043033
     40 H2           4.0070    -3.9810    -1.0250 hc         1 034       0.065700
     41 H3           6.1470    -4.5000     1.1020 hc         1 034       0.043033
     42 H3A          4.3920    -4.4700     1.3790 hc         1 034       0.043033
     43 H3B          5.1040    -5.7180     0.3360 hc         1 034       0.043033
     44 H9           2.5150    -0.7690    -1.6650 h1         1 034       0.044200
     45 H9A          2.3910    -2.4490    -1.0880 h1         1 034       0.044200
     46 H12          0.2940    -1.6010    -1.9800 ha         1 034       0.111500
     47 H13         -2.1270    -1.2990    -2.2120 ha         1 034       0.116500
     48 H15         -2.3430     0.1990     1.8450 ha         1 034       0.116500
     49 H16          0.1030    -0.0860     2.0690 ha         1 034       0.111500
     50 H18         -4.2180    -2.1010    -1.6190 ha         1 034       0.090000
     51 H19         -6.6780    -1.8020    -1.8700 ha         1 034       0.100000
     52 H23         -6.6810     2.6640     1.2590 ha         1 034       0.206000
     53 H25         -4.0500     1.4630     0.8860 ha         1 034       0.101000
     54 H32          2.3570     3.0920     2.6980 ha         1 034       0.135500
     55 H33          2.1440     4.5860     0.7120 ha         1 034       0.126000
     56 H34          3.0900     3.8700    -1.4830 ha         1 034       0.135500
     57 HN21        -8.7890    -0.1340    -1.0890 hn         1 034       0.361000
@<TRIPOS>BOND
     1     1     2 1   
     2     1    37 1   
     3     1    38 1   
     4     1    39 1   
     5     2     3 1   
     6     2     5 1   
     7     2    40 1   
     8     3    41 1   
     9     3    42 1   
    10     3    43 1   
    11     4    32 1   
    12     5     6 1   
    13     5    10 2   
    14     6     7 1   
    15     7     9 2   
    16     8    36 1   
    17     9    10 1   
    18     9    31 1   
    19    10    11 1   
    20    11    12 1   
    21    11    44 1   
    22    11    45 1   
    23    12    13 1   
    24    13    14 ar  
    25    13    18 ar  
    26    14    15 ar  
    27    14    46 1   
    28    15    16 ar  
    29    15    47 1   
    30    16    17 ar  
    31    16    19 1   
    32    17    18 ar  
    33    17    48 1   
    34    18    49 1   
    35    19    20 ar  
    36    19    27 ar  
    37    20    21 ar  
    38    20    50 1   
    39    21    22 ar  
    40    21    51 1   
    41    22    23 1   
    42    22    26 ar  
    43    23    24 1   
    44    23    57 1   
    45    24    25 2   
    46    24    28 1   
    47    25    26 1   
    48    25    52 1   
    49    26    27 ar  
    50    27    53 1   
    51    28    29 1   
    52    28    30 1   
    53    31    32 ar  
    54    31    36 ar  
    55    32    33 ar  
    56    33    34 ar  
    57    33    54 1   
    58    34    35 ar  
    59    34    55 1   
    60    35    36 ar  
    61    35    56 1   
@<TRIPOS>SUBSTRUCTURE
     1 034         1 TEMP              0 ****  ****    0 ROOT
