@<TRIPOS>MOLECULE
038
   97    99     1     0     0
SMALL
No Charge or Current Charge


@<TRIPOS>ATOM
      1 O1           7.0890     3.3340    -1.9960 o          1 038      -0.589100
      2 N3           6.4910     3.5050     0.1970 ns         1 038      -0.471900
      3 C4           4.6930     0.4830     1.7770 c          1 038       0.565100
      4 N7           7.1320     6.2840     0.1230 nc         1 038      -0.382000
      5 C5           5.0570     1.9900     1.5500 c3         1 038       0.068500
      6 N6           7.5290     7.5370    -0.2790 nc         1 038      -0.052000
      7 C6           6.1030     2.1080     0.4140 c3         1 038       0.104000
      8 N5           7.8970     7.5610    -1.5300 nd         1 038      -0.196800
      9 C7           6.9540     4.0310    -0.9950 c          1 038       0.534600
     10 N4           7.7390     6.2830    -1.9660 na         1 038      -0.167700
     11 C8           7.2670     5.5020    -0.9410 cd         1 038       0.330000
     12 N8           5.5120     2.7390     2.7820 n8         1 038      -1.002200
     13 N2           3.4560     0.0940     1.3080 ns         1 038      -0.474900
     14 C3           2.8700    -1.2570     1.4660 c3         1 038       0.034700
     15 C2           1.8500    -1.5170     0.3160 c          1 038       0.589100
     16 O3           1.4240    -0.6260    -0.4080 o          1 038      -0.598100
     17 C9           2.2600    -1.4130     2.8980 c3         1 038      -0.062700
     18 C10          0.9940    -0.5470     3.1130 c3         1 038      -0.101600
     19 C11          2.0070    -2.8840     3.3070 c3         1 038      -0.101600
     20 N1           1.4560    -2.8280     0.1460 ns         1 038      -0.488900
     21 C1           0.3840    -3.2540    -0.7780 c3         1 038       0.037700
     22 C19         -0.9980    -2.9960    -0.1070 c          1 038       0.588100
     23 O4          -1.1860    -3.1170     1.0980 o          1 038      -0.610100
     24 C12          0.5930    -4.7430    -1.1610 c3         1 038      -0.083400
     25 C13         -0.4090    -5.3280    -2.1980 c3         1 038      -0.060700
     26 C14         -0.3470    -4.6030    -3.5640 c3         1 038      -0.089100
     27 C18         -0.1860    -6.8460    -2.3780 c3         1 038      -0.089100
     28 O5          -3.2470    -0.1000    -1.9100 oh         1 038      -0.656000
     29 O6          -5.2480    -0.5690     1.1120 o          1 038      -0.607100
     30 N9          -2.0050    -2.5870    -0.9580 ns         1 038      -0.486900
     31 C20         -3.4250    -0.5320    -0.5310 c3         1 038       0.079000
     32 C21         -3.3190    -2.0900    -0.5110 c3         1 038       0.071000
     33 C22         -2.2890     0.1300     0.3120 c3         1 038      -0.061400
     34 C23         -1.1040     2.2600     1.0540 ca         1 038      -0.063300
     35 C24          0.0410     2.4890     0.2660 ca         1 038      -0.101000
     36 C25          1.1990     3.0440     0.8380 ca         1 038      -0.127500
     37 C26          1.2210     3.3690     2.2040 ca         1 038      -0.129000
     38 C27          0.0850     3.1380     2.9980 ca         1 038      -0.127500
     39 C28         -1.0750     2.5840     2.4250 ca         1 038      -0.101000
     40 C29         -4.8280    -0.1170     0.0500 c          1 038       0.568100
     41 C52         -2.3590     1.6740     0.4210 c3         1 038      -0.036100
     42 O8          -8.3400     3.7330    -3.8170 o          1 038      -0.718500
     43 O7         -10.1340     4.1930    -2.7300 o          1 038      -0.718500
     44 C34         -8.5470     2.8100    -1.6450 ca         1 038      -0.115600
     45 C33         -7.2930     2.1540    -1.6950 ca         1 038      -0.130000
     46 C30         -6.8240     1.3800    -0.6160 ca         1 038      -0.078000
     47 C31         -7.6220     1.2640     0.5420 ca         1 038      -0.151000
     48 C32         -8.8670     1.9080     0.6070 ca         1 038      -0.130000
     49 C35         -9.3290     2.6730    -0.4750 ca         1 038      -0.098000
     50 N10         -5.5490     0.7610    -0.7560 ns         1 038      -0.124000
     51 HN3          6.4040     4.1420     0.9850 hn         1 038       0.361500
     52 H5           4.1430     2.4860     1.1960 h1         1 038       0.072700
     53 H6           5.6830     1.6920    -0.5120 h1         1 038       0.076200
     54 H6A          7.0000     1.5300     0.6740 h1         1 038       0.076200
     55 HN4          7.9490     5.9890    -2.9140 hn         1 038       0.412000
     56 HN8          4.7760     2.6990     3.4990 hn         1 038       0.415000
     57 HN8A         6.2840     2.2190     3.2200 hn         1 038       0.415000
     58 HN2          2.8960     0.7950     0.8320 hn         1 038       0.328500
     59 H3           3.6770    -1.9910     1.3450 h1         1 038       0.077700
     60 H9           3.0150    -1.0430     3.6030 hc         1 038       0.049700
     61 H10          0.1710    -0.8760     2.4680 hc         1 038       0.046533
     62 H10A         0.6550    -0.6090     4.1540 hc         1 038       0.046533
     63 H10B         1.2020     0.5060     2.8920 hc         1 038       0.046533
     64 H11          2.8920    -3.5030     3.1130 hc         1 038       0.046533
     65 H11A         1.7850    -2.9470     4.3790 hc         1 038       0.046533
     66 H11B         1.1540    -3.3130     2.7690 hc         1 038       0.046533
     67 HN1          1.8460    -3.5110     0.7840 hn         1 038       0.320500
     68 H1           0.4440    -2.6360    -1.6830 h1         1 038       0.076700
     69 H12          1.6110    -4.8650    -1.5530 hc         1 038       0.051700
     70 H12A         0.5410    -5.3440    -0.2440 hc         1 038       0.051700
     71 H13         -1.4250    -5.2050    -1.8020 hc         1 038       0.059700
     72 H14         -1.0440    -5.0620    -4.2760 hc         1 038       0.033700
     73 H14A        -0.6200    -3.5470    -3.4720 hc         1 038       0.033700
     74 H14B         0.6620    -4.6620    -3.9910 hc         1 038       0.033700
     75 H18         -0.2870    -7.3710    -1.4200 hc         1 038       0.033700
     76 H18A        -0.9250    -7.2680    -3.0710 hc         1 038       0.033700
     77 H18B         0.8150    -7.0500    -2.7780 hc         1 038       0.033700
     78 HO5         -3.7070    -0.7390    -2.4990 ho         1 038       0.445000
     79 HN9         -1.7620    -2.4880    -1.9370 hn         1 038       0.319500
     80 H21         -4.0970    -2.5230    -1.1550 h1         1 038       0.076700
     81 H21A        -3.5140    -2.4530     0.5070 h1         1 038       0.076700
     82 H22         -2.2930    -0.2940     1.3240 hc         1 038       0.067200
     83 H22A        -1.3200    -0.1320    -0.1290 hc         1 038       0.067200
     84 H24          0.0320     2.2390    -0.7930 ha         1 038       0.125000
     85 H25          2.0730     3.2300     0.2180 ha         1 038       0.104000
     86 H26          2.1160     3.8010     2.6470 ha         1 038       0.102000
     87 H27          0.1010     3.3880     4.0560 ha         1 038       0.104000
     88 H28         -1.9500     2.4090     3.0470 ha         1 038       0.125000
     89 H52         -2.4940     2.1050    -0.5790 hc         1 038       0.066200
     90 H52A        -3.2450     1.9640     0.9990 hc         1 038       0.066200
     91 H31         -7.2970     0.6870     1.4010 ha         1 038       0.120000
     92 H32         -9.4780     1.8140     1.5020 ha         1 038       0.089000
     93 H35        -10.2980     3.1630    -0.4000 ha         1 038       0.129000
     94 HN10        -5.0590     1.0220    -1.6030 hn         1 038       0.161000
     95 C36         -9.0450     3.6420    -2.8210 c          1 038       0.713600
     96 O2           5.4390    -0.2930     2.3610 o          1 038      -0.605100
     97 H33         -6.6750     2.2460    -2.5860 ha         1 038       0.127000
@<TRIPOS>BOND
     1     1     9 2   
     2     2     7 1   
     3     2     9 1   
     4     2    51 1   
     5     3     5 1   
     6     3    13 1   
     7     3    96 2   
     8     4     6 1   
     9     4    11 2   
    10     5     7 1   
    11     5    12 1   
    12     5    52 1   
    13     6     8 2   
    14     7    53 1   
    15     7    54 1   
    16     8    10 1   
    17     9    11 1   
    18    10    11 1   
    19    10    55 1   
    20    12    56 1   
    21    12    57 1   
    22    13    14 1   
    23    13    58 1   
    24    14    15 1   
    25    14    17 1   
    26    14    59 1   
    27    15    16 2   
    28    15    20 1   
    29    17    18 1   
    30    17    19 1   
    31    17    60 1   
    32    18    61 1   
    33    18    62 1   
    34    18    63 1   
    35    19    64 1   
    36    19    65 1   
    37    19    66 1   
    38    20    21 1   
    39    20    67 1   
    40    21    22 1   
    41    21    24 1   
    42    21    68 1   
    43    22    23 2   
    44    22    30 1   
    45    24    25 1   
    46    24    69 1   
    47    24    70 1   
    48    25    26 1   
    49    25    27 1   
    50    25    71 1   
    51    26    72 1   
    52    26    73 1   
    53    26    74 1   
    54    27    75 1   
    55    27    76 1   
    56    27    77 1   
    57    28    31 1   
    58    28    78 1   
    59    29    40 2   
    60    30    32 1   
    61    30    79 1   
    62    31    32 1   
    63    31    33 1   
    64    31    40 1   
    65    32    80 1   
    66    32    81 1   
    67    33    41 1   
    68    33    82 1   
    69    33    83 1   
    70    34    35 ar  
    71    34    39 ar  
    72    34    41 1   
    73    35    36 ar  
    74    35    84 1   
    75    36    37 ar  
    76    36    85 1   
    77    37    38 ar  
    78    37    86 1   
    79    38    39 ar  
    80    38    87 1   
    81    39    88 1   
    82    40    50 1   
    83    41    89 1   
    84    41    90 1   
    85    42    95 1   
    86    43    95 1   
    87    44    45 ar  
    88    44    49 ar  
    89    44    95 1   
    90    45    46 ar  
    91    45    97 1   
    92    46    47 ar  
    93    46    50 1   
    94    47    48 ar  
    95    47    91 1   
    96    48    49 ar  
    97    48    92 1   
    98    49    93 1   
    99    50    94 1   
@<TRIPOS>SUBSTRUCTURE
     1 038         1 TEMP              0 ****  ****    0 ROOT
