@<TRIPOS>MOLECULE
038
   97    99     1     0     0
SMALL
bcc


@<TRIPOS>ATOM
      1 O1           2.5400     3.9780    -1.6000 o          1 038      -0.589100
      2 N3           4.4260     3.3440    -0.4940 ns         1 038      -0.538900
      3 C4           4.5460    -0.1030     0.9440 c          1 038       0.632100
      4 N7           5.2980     6.0540    -0.6630 nc         1 038      -0.382000
      5 C5           4.9100     1.3730     0.8140 c3         1 038       0.068500
      6 N6           5.3250     7.3520    -0.9470 nc         1 038      -0.052000
      7 C6           4.1270     1.9380    -0.3720 c3         1 038       0.104000
      8 N5           4.2660     7.7050    -1.5710 nd         1 038      -0.196800
      9 C7           3.6290     4.2160    -1.1020 c          1 038       0.601600
     10 N4           3.5290     6.6250    -1.7020 na         1 038      -0.117400
     11 C8           4.1660     5.6010    -1.1390 cd         1 038       0.330000
     12 N8           6.3190     1.6310     0.6210 n8         1 038      -0.891800
     13 N2           3.6290    -0.3810     1.8830 ns         1 038      -0.541900
     14 C3           2.9780    -1.6620     1.9580 c3         1 038       0.034700
     15 C2           2.0850    -1.8450     0.7300 c          1 038       0.656100
     16 O3           1.6710    -0.8970     0.0850 o          1 038      -0.598100
     17 C9           2.1920    -1.7610     3.2830 c3         1 038      -0.062700
     18 C10          0.9840    -0.8300     3.3380 c3         1 038      -0.101600
     19 C11          1.7760    -3.1910     3.6150 c3         1 038      -0.101600
     20 N1           1.7700    -3.1150     0.4270 ns         1 038      -0.555900
     21 C1           0.7590    -3.4250    -0.5560 c3         1 038       0.037700
     22 C19         -0.5970    -2.9010    -0.0740 c          1 038       0.655100
     23 O4          -0.9980    -3.1470     1.0520 o          1 038      -0.610100
     24 C12          0.6920    -4.9410    -0.7420 c3         1 038      -0.083400
     25 C13         -0.3170    -5.4310    -1.7810 c3         1 038      -0.060700
     26 C14          0.0120    -4.9380    -3.1870 c3         1 038      -0.089100
     27 C18         -0.3650    -6.9560    -1.7540 c3         1 038      -0.089100
     28 O5          -2.1330     0.4200    -1.8660 oh         1 038      -0.593800
     29 O6          -4.6870    -0.2290     0.5450 o          1 038      -0.607100
     30 N9          -1.3010    -2.2170    -0.9890 ns         1 038      -0.553900
     31 C20         -2.6170    -0.1400    -0.6640 c3         1 038       0.055800
     32 C21         -2.6140    -1.6770    -0.7530 c3         1 038       0.071000
     33 C22         -1.7060     0.3560     0.4640 c3         1 038      -0.061400
     34 C23         -0.6750     2.2950     1.6700 ca         1 038      -0.063300
     35 C24          0.6080     2.6640     1.2750 ca         1 038      -0.119000
     36 C25          1.5640     3.0350     2.2110 ca         1 038      -0.145500
     37 C26          1.2530     3.0330     3.5650 ca         1 038      -0.147000
     38 C27         -0.0230     2.6630     3.9710 ca         1 038      -0.145500
     39 C28         -0.9760     2.2990     3.0300 ca         1 038      -0.119000
     40 C29         -4.0590     0.3020    -0.3560 c          1 038       0.635100
     41 C52         -1.7020     1.8770     0.6530 c3         1 038      -0.036100
     42 O8          -6.2960     4.9500    -3.9840 o          1 038      -0.823800
     43 O7          -8.3950     5.2950    -3.3160 o          1 038      -0.823800
     44 C34         -7.1260     3.6500    -2.1950 ca         1 038      -0.115600
     45 C33         -5.9340     2.9490    -2.0890 ca         1 038      -0.148000
     46 C30         -5.7570     1.9480    -1.1330 ca         1 038       0.014600
     47 C31         -6.8000     1.6490    -0.2570 ca         1 038      -0.169000
     48 C32         -7.9920     2.3550    -0.3630 ca         1 038      -0.148000
     49 C35         -8.1640     3.3440    -1.3180 ca         1 038      -0.116000
     50 N10         -4.5140     1.3030    -1.1340 ns         1 038      -0.450100
     51 HN3          5.3470     3.6290    -0.1830 hn         1 038       0.361500
     52 H5           4.5940     1.9060     1.7160 h1         1 038       0.072700
     53 H6           3.0560     1.7910    -0.2270 h1         1 038       0.076200
     54 H6A          4.4070     1.4050    -1.2870 h1         1 038       0.076200
     55 HN4          2.6330     6.6510    -2.1710 hn         1 038       0.361700
     56 HN8          6.8350     1.4150     1.4640 hn         1 038       0.359800
     57 HN8A         6.6840     1.0280    -0.1070 hn         1 038       0.359800
     58 HN2          3.1880     0.3920     2.3570 hn         1 038       0.328500
     59 H3           3.7460    -2.4410     1.9650 h1         1 038       0.077700
     60 H9           2.9100    -1.4480     4.0480 hc         1 038       0.049700
     61 H10          0.1950    -1.1690     2.6660 hc         1 038       0.046533
     62 H10A         0.5720    -0.8160     4.3470 hc         1 038       0.046533
     63 H10B         1.2090     0.2040     3.0730 hc         1 038       0.046533
     64 H11          2.6030    -3.8940     3.5010 hc         1 038       0.046533
     65 H11A         1.4410    -3.2460     4.6510 hc         1 038       0.046533
     66 H11B         0.9470    -3.5290     2.9920 hc         1 038       0.046533
     67 HN1          2.1110    -3.8620     1.0110 hn         1 038       0.320500
     68 H1           1.0310    -2.9480    -1.5020 h1         1 038       0.076700
     69 H12          1.6910    -5.2930    -1.0230 hc         1 038       0.051700
     70 H12A         0.4580    -5.3940     0.2270 hc         1 038       0.051700
     71 H13         -1.3120    -5.0640    -1.5090 hc         1 038       0.059700
     72 H14         -0.6830    -5.3590    -3.9150 hc         1 038       0.033700
     73 H14A        -0.0470    -3.8520    -3.2810 hc         1 038       0.033700
     74 H14B         1.0200    -5.2400    -3.4780 hc         1 038       0.033700
     75 H18         -0.6300    -7.3300    -0.7640 hc         1 038       0.033700
     76 H18A        -1.1030    -7.3360    -2.4630 hc         1 038       0.033700
     77 H18B         0.6040    -7.3840    -2.0230 hc         1 038       0.033700
     78 HO5         -2.5420    -0.0220    -2.6200 ho         1 038       0.406000
     79 HN9         -0.8600    -2.0070    -1.8700 hn         1 038       0.319500
     80 H21         -3.2780    -1.9900    -1.5660 h1         1 038       0.076700
     81 H21A        -3.0070    -2.1080     0.1640 h1         1 038       0.076700
     82 H22         -2.0050    -0.1270     1.3960 hc         1 038       0.067200
     83 H22A        -0.6900     0.0190     0.2530 hc         1 038       0.067200
     84 H24          0.8570     2.6800     0.2210 ha         1 038       0.143000
     85 H25          2.5510     3.3440     1.8860 ha         1 038       0.122000
     86 H26          1.9960     3.3260     4.2960 ha         1 038       0.120000
     87 H27         -0.2770     2.6610     5.0240 ha         1 038       0.122000
     88 H28         -1.9700     2.0140     3.3570 ha         1 038       0.143000
     89 H52         -1.4880     2.3680    -0.2990 hc         1 038       0.066200
     90 H52A        -2.6880     2.2230     0.9730 hc         1 038       0.066200
     91 H31         -6.6980     0.8830     0.4930 ha         1 038       0.138000
     92 H32         -8.7990     2.1180     0.3190 ha         1 038       0.107000
     93 H35         -9.1010     3.8800    -1.3850 ha         1 038       0.147000
     94 HN10        -3.8530     1.6480    -1.8170 hn         1 038       0.327500
     95 C36         -7.2870     4.7300    -3.2610 c          1 038       0.924200
     96 O2           5.0470    -0.9510     0.2220 o          1 038      -0.605100
     97 H33         -5.1260     3.1850    -2.7720 ha         1 038       0.145000
@<TRIPOS>BOND
     1     1     9 2   
     2     2     7 1   
     3     2     9 1   
     4     2    51 1   
     5     3     5 1   
     6     3    13 1   
     7     3    96 2   
     8     4     6 1   
     9     4    11 2   
    10     5     7 1   
    11     5    12 1   
    12     5    52 1   
    13     6     8 2   
    14     7    53 1   
    15     7    54 1   
    16     8    10 1   
    17     9    11 1   
    18    10    11 1   
    19    10    55 1   
    20    12    56 1   
    21    12    57 1   
    22    13    14 1   
    23    13    58 1   
    24    14    15 1   
    25    14    17 1   
    26    14    59 1   
    27    15    16 2   
    28    15    20 1   
    29    17    18 1   
    30    17    19 1   
    31    17    60 1   
    32    18    61 1   
    33    18    62 1   
    34    18    63 1   
    35    19    64 1   
    36    19    65 1   
    37    19    66 1   
    38    20    21 1   
    39    20    67 1   
    40    21    22 1   
    41    21    24 1   
    42    21    68 1   
    43    22    23 2   
    44    22    30 1   
    45    24    25 1   
    46    24    69 1   
    47    24    70 1   
    48    25    26 1   
    49    25    27 1   
    50    25    71 1   
    51    26    72 1   
    52    26    73 1   
    53    26    74 1   
    54    27    75 1   
    55    27    76 1   
    56    27    77 1   
    57    28    31 1   
    58    28    78 1   
    59    29    40 2   
    60    30    32 1   
    61    30    79 1   
    62    31    32 1   
    63    31    33 1   
    64    31    40 1   
    65    32    80 1   
    66    32    81 1   
    67    33    41 1   
    68    33    82 1   
    69    33    83 1   
    70    34    35 ar  
    71    34    39 ar  
    72    34    41 1   
    73    35    36 ar  
    74    35    84 1   
    75    36    37 ar  
    76    36    85 1   
    77    37    38 ar  
    78    37    86 1   
    79    38    39 ar  
    80    38    87 1   
    81    39    88 1   
    82    40    50 1   
    83    41    89 1   
    84    41    90 1   
    85    42    95 1   
    86    43    95 1   
    87    44    45 ar  
    88    44    49 ar  
    89    44    95 1   
    90    45    46 ar  
    91    45    97 1   
    92    46    47 ar  
    93    46    50 1   
    94    47    48 ar  
    95    47    91 1   
    96    48    49 ar  
    97    48    92 1   
    98    49    93 1   
    99    50    94 1   
@<TRIPOS>SUBSTRUCTURE
     1 038         1 TEMP              0 ****  ****    0 ROOT
