@<TRIPOS>MOLECULE
039
   46    50     1     0     0
SMALL
No Charge or Current Charge


@<TRIPOS>ATOM
      1 CAU         -0.9730     2.9640    -2.9960 c3         1 039       0.147900
      2 OAT         -1.2140     2.1940    -1.8060 os         1 039      -0.332100
      3 CAP         -1.0350     2.7150    -0.5370 ca         1 039       0.160100
      4 CAQ         -0.5970     4.0410    -0.3240 ca         1 039      -0.195000
      5 CAR         -0.4240     4.5260     0.9840 ca         1 039      -0.057000
      6 CAJ         -0.6910     3.6940     2.0830 ca         1 039      -0.143000
      7 CAI         -1.1260     2.3750     1.8800 ca         1 039      -0.054000
      8 CAH         -1.2890     1.8780     0.5730 ca         1 039      -0.023400
      9 NAG         -1.7380     0.5220     0.3820 n          1 039      -0.244500
     10 CAF         -3.0690     0.1380     0.4320 c          1 039       0.586600
     11 OAB         -3.9440     0.9550     0.6840 o          1 039      -0.494000
     12 CAE         -3.3240    -1.3050     0.1560 ca         1 039      -0.192600
     13 CAD         -4.6220    -1.8880     0.1650 ca         1 039       0.182000
     14 Cl          -6.1030    -0.9880     0.5110 cl         1 039      -0.165000
     15 CAC         -4.7840    -3.2540    -0.1110 ca         1 039      -0.136000
     16 CAK         -3.6730    -4.0540    -0.3970 ca         1 039      -0.068000
     17 CAL         -2.3960    -3.4800    -0.4050 ca         1 039      -0.105000
     18 CAM         -2.2040    -2.1140    -0.1310 ca         1 039       0.205400
     19 NAN         -0.8770    -1.6680    -0.1680 nc         1 039      -0.644100
     20 CAO         -0.7020    -0.3700     0.1000 cd         1 039       0.540900
     21 CAS          0.7560     0.0840     0.0670 c3         1 039      -0.029700
     22 S6           2.0770    -1.2310     0.0680 ss         1 039      -0.189300
     23 C6           3.6140    -0.3040     0.0160 ca         1 039       0.252300
     24 C5           4.8640    -0.9650     0.0130 ca         1 039      -0.026600
     25 N7           5.1360    -2.3260     0.0470 nc         1 039      -0.534100
     26 C8           6.4810    -2.3530     0.0240 cd         1 039       0.414700
     27 N9           7.0620    -1.0790    -0.0210 na         1 039      -0.411300
     28 C4           6.0090    -0.2080    -0.0270 ca         1 039       0.100500
     29 N3           5.9840     1.1370    -0.0640 nb         1 039      -0.180000
     30 C2           4.7540     1.7000    -0.0590 ca         1 039       0.149900
     31 N1           3.5670     1.0480    -0.0200 nb         1 039      -0.235000
     32 HAU1         0.0720     3.2940    -3.0420 h1         1 039       0.045367
     33 HAU2        -1.1780     2.3580    -3.8870 h1         1 039       0.045367
     34 HAU3        -1.6250     3.8460    -3.0280 h1         1 039       0.045367
     35 HAQ         -0.3860     4.7070    -1.1560 ha         1 039       0.122000
     36 HAR         -0.0870     5.5480     1.1450 ha         1 039       0.115000
     37 HAJ         -0.5610     4.0740     3.0950 ha         1 039       0.122000
     38 HAI         -1.3330     1.7360     2.7360 ha         1 039       0.127000
     39 HAC         -5.7780    -3.6930    -0.1020 ha         1 039       0.132000
     40 HAK         -3.8000    -5.1130    -0.6110 ha         1 039       0.122000
     41 HAL         -1.5350    -4.1060    -0.6270 ha         1 039       0.140000
     42 HAS1         0.8940     0.6970    -0.8310 h1         1 039       0.104200
     43 HAS2         0.9430     0.7180     0.9400 h1         1 039       0.104200
     44 H8           7.0940    -3.2470     0.0390 h5         1 039       0.070800
     45 H9           8.0500    -0.8640    -0.0440 hn         1 039       0.372000
     46 H2           4.7130     2.7870    -0.0880 h5         1 039       0.051100
@<TRIPOS>BOND
     1     1     2 1   
     2     1    32 1   
     3     1    33 1   
     4     1    34 1   
     5     2     3 1   
     6     3     4 ar  
     7     3     8 ar  
     8     4     5 ar  
     9     4    35 1   
    10     5     6 ar  
    11     5    36 1   
    12     6     7 ar  
    13     6    37 1   
    14     7     8 ar  
    15     7    38 1   
    16     8     9 1   
    17     9    10 1   
    18     9    20 1   
    19    10    11 2   
    20    10    12 1   
    21    12    13 ar  
    22    12    18 ar  
    23    13    14 1   
    24    13    15 ar  
    25    15    16 ar  
    26    15    39 1   
    27    16    17 ar  
    28    16    40 1   
    29    17    18 ar  
    30    17    41 1   
    31    18    19 1   
    32    19    20 2   
    33    20    21 1   
    34    21    22 1   
    35    21    42 1   
    36    21    43 1   
    37    22    23 1   
    38    23    24 ar  
    39    23    31 ar  
    40    24    25 1   
    41    24    28 ar  
    42    25    26 2   
    43    26    27 1   
    44    26    44 1   
    45    27    28 1   
    46    27    45 1   
    47    28    29 ar  
    48    29    30 ar  
    49    30    31 ar  
    50    30    46 1   
@<TRIPOS>SUBSTRUCTURE
     1 039         1 TEMP              0 ****  ****    0 ROOT
