@<TRIPOS>MOLECULE
039
   46    50     1     0     0
SMALL
bcc


@<TRIPOS>ATOM
      1 CAU         -1.1780     2.8990    -2.9510 c3         1 039       0.124700
      2 OAT         -1.3160     2.1350    -1.7650 os         1 039      -0.308900
      3 CAP         -1.1300     2.7410    -0.5860 ca         1 039       0.160100
      4 CAQ         -0.8280     4.0890    -0.4140 ca         1 039      -0.213000
      5 CAR         -0.6460     4.5980     0.8660 ca         1 039      -0.075000
      6 CAJ         -0.7580     3.7860     1.9840 ca         1 039      -0.161000
      7 CAI         -1.0610     2.4420     1.8160 ca         1 039      -0.072000
      8 CAH         -1.2380     1.9270     0.5460 ca         1 039      -0.023400
      9 NAG         -1.5380     0.5440     0.3640 n          1 039      -0.311500
     10 CAF         -2.8890     0.2000     0.2740 c          1 039       0.729100
     11 OAB         -3.7320     1.0640     0.3670 o          1 039      -0.569500
     12 CAE         -3.1340    -1.2280     0.0740 ca         1 039      -0.192600
     13 CAD         -4.4180    -1.7930    -0.0150 ca         1 039       0.090400
     14 CL          -5.8590    -0.8510     0.1180 cl         1 039      -0.073400
     15 CAC         -4.5840    -3.1490    -0.2110 ca         1 039      -0.154000
     16 CAK         -3.4690    -3.9770    -0.3230 ca         1 039      -0.086000
     17 CAL         -2.1990    -3.4560    -0.2410 ca         1 039      -0.123000
     18 CAM         -2.0220    -2.0840    -0.0430 ca         1 039       0.205400
     19 NAN         -0.7330    -1.6180     0.0250 nc         1 039      -0.644100
     20 CAO         -0.5310    -0.3690     0.2140 cd         1 039       0.540900
     21 CAS          0.8720     0.1480     0.2770 c3         1 039      -0.077600
     22 S6           2.0100    -1.2370     0.0170 ss         1 039      -0.141400
     23 C6           3.5260    -0.3740     0.0950 ca         1 039       0.580600
     24 C5           4.7170    -1.0830    -0.0480 ca         1 039      -0.157200
     25 N7           5.0050    -2.4040    -0.2490 nc         1 039      -0.534100
     26 C8           6.3060    -2.4410    -0.3030 cd         1 039       0.414700
     27 N9           6.8910    -1.2220    -0.1500 na         1 039      -0.361000
     28 C4           5.8880    -0.3230     0.0170 ca         1 039       0.428800
     29 N3           5.9540     0.9880     0.2030 nb         1 039      -0.706000
     30 C2           4.7610     1.5420     0.3270 ca         1 039       0.675900
     31 N1           3.5720     0.9350     0.2830 nb         1 039      -0.761000
     32 HAU1        -0.1770     3.3250    -3.0430 h1         1 039       0.045367
     33 HAU2        -1.3470     2.2140    -3.7770 h1         1 039       0.045367
     34 HAU3        -1.9150     3.7040    -3.0010 h1         1 039       0.045367
     35 HAQ         -0.7320     4.7510    -1.2630 ha         1 039       0.140000
     36 HAR         -0.4140     5.6480     0.9820 ha         1 039       0.133000
     37 HAJ         -0.6140     4.1910     2.9760 ha         1 039       0.140000
     38 HAI         -1.1570     1.7840     2.6710 ha         1 039       0.145000
     39 HAC         -5.5790    -3.5660    -0.2780 ha         1 039       0.150000
     40 HAK         -3.6130    -5.0390    -0.4740 ha         1 039       0.140000
     41 HAL         -1.3250    -4.0870    -0.3270 ha         1 039       0.158000
     42 HAS1         1.0390     0.9070    -0.4870 h1         1 039       0.104200
     43 HAS2         1.0760     0.6120     1.2430 h1         1 039       0.104200
     44 H8           6.8980    -3.3310    -0.4540 h5         1 039       0.070800
     45 H9           7.8830    -1.0320    -0.1610 hn         1 039       0.321700
     46 H2           4.7370     2.6140     0.4830 h5         1 039       0.051100
@<TRIPOS>BOND
     1     1     2 1   
     2     1    32 1   
     3     1    33 1   
     4     1    34 1   
     5     2     3 1   
     6     3     4 ar  
     7     3     8 ar  
     8     4     5 ar  
     9     4    35 1   
    10     5     6 ar  
    11     5    36 1   
    12     6     7 ar  
    13     6    37 1   
    14     7     8 ar  
    15     7    38 1   
    16     8     9 1   
    17     9    10 1   
    18     9    20 1   
    19    10    11 2   
    20    10    12 1   
    21    12    13 ar  
    22    12    18 ar  
    23    13    14 1   
    24    13    15 ar  
    25    15    16 ar  
    26    15    39 1   
    27    16    17 ar  
    28    16    40 1   
    29    17    18 ar  
    30    17    41 1   
    31    18    19 1   
    32    19    20 2   
    33    20    21 1   
    34    21    22 1   
    35    21    42 1   
    36    21    43 1   
    37    22    23 1   
    38    23    24 ar  
    39    23    31 ar  
    40    24    25 1   
    41    24    28 ar  
    42    25    26 2   
    43    26    27 1   
    44    26    44 1   
    45    27    28 1   
    46    27    45 1   
    47    28    29 ar  
    48    29    30 ar  
    49    30    31 ar  
    50    30    46 1   
@<TRIPOS>SUBSTRUCTURE
     1 039         1 TEMP              0 ****  ****    0 ROOT
