@<TRIPOS>MOLECULE
03A
   29    29     1     0     0
SMALL
No Charge or Current Charge


@<TRIPOS>ATOM
      1 NAA          2.0780    -0.0100    -0.4430 ns         1 03A      -0.462900
      2 NAE         -2.5390     2.0110     0.2900 n8         1 03A      -0.989200
      3 CAH         -1.6840     0.7710     0.3230 c3         1 03A       0.082500
      4 CAI         -0.2370     0.9520    -0.2520 c          1 03A       0.458100
      5 CAJ         -2.4140    -0.4090    -0.3780 c3         1 03A      -0.063400
      6 CAK         -3.7270    -0.8490     0.3150 c3         1 03A      -0.069400
      7 CAL         -4.3970    -2.0540    -0.3740 c3         1 03A      -0.090100
      8 CAM          0.8560    -0.1210     0.2020 c          1 03A       0.498100
      9 CAN          3.2090    -0.8640    -0.1970 cx         1 03A       0.042700
     10 CAO          4.5490    -0.4250    -0.7350 cx         1 03A      -0.132900
     11 CAP          4.2730    -0.3620     0.7480 cx         1 03A      -0.132900
     12 OBS          0.6430    -0.9790     1.0560 o          1 03A      -0.576100
     13 HNAA         2.1530     0.7340    -1.1310 hn         1 03A       0.339500
     14 H2          -2.5810     2.3600    -0.6770 hn         1 03A       0.407000
     15 HAH         -1.5450     0.4880     1.3780 h1         1 03A       0.101700
     16 OBR          0.0550     1.8850    -1.0060 o          1 03A      -0.516100
     17 HAJ         -2.6240    -0.1380    -1.4200 hc         1 03A       0.045700
     18 HAJA        -1.7410    -1.2750    -0.4140 hc         1 03A       0.045700
     19 HAK         -3.5180    -1.1080     1.3600 hc         1 03A       0.050700
     20 HAKA        -4.4380    -0.0130     0.3290 hc         1 03A       0.050700
     21 HAL         -4.6500    -1.8150    -1.4140 hc         1 03A       0.031367
     22 HALA        -3.7300    -2.9240    -0.3700 hc         1 03A       0.031367
     23 HALB        -5.3210    -2.3280     0.1490 hc         1 03A       0.031367
     24 HAN          2.9800    -1.9310    -0.1960 h1         1 03A       0.091700
     25 HAO          5.2250    -1.1980    -1.0920 hc         1 03A       0.079700
     26 HAOA         4.6030     0.5140    -1.2800 hc         1 03A       0.079700
     27 HAP          4.1360     0.6180     1.1980 hc         1 03A       0.079700
     28 HAPA         4.7630    -1.0920     1.3880 hc         1 03A       0.079700
     29 HNAE        -2.0580     2.7740     0.7850 hn         1 03A       0.407000
@<TRIPOS>BOND
     1     1     8 1   
     2     1     9 1   
     3     1    13 1   
     4     2     3 1   
     5     2    14 1   
     6     2    29 1   
     7     3     4 1   
     8     3     5 1   
     9     3    15 1   
    10     4     8 1   
    11     4    16 2   
    12     5     6 1   
    13     5    17 1   
    14     5    18 1   
    15     6     7 1   
    16     6    19 1   
    17     6    20 1   
    18     7    21 1   
    19     7    22 1   
    20     7    23 1   
    21     8    12 2   
    22     9    10 1   
    23     9    11 1   
    24     9    24 1   
    25    10    11 1   
    26    10    25 1   
    27    10    26 1   
    28    11    27 1   
    29    11    28 1   
@<TRIPOS>SUBSTRUCTURE
     1 03A         1 TEMP              0 ****  ****    0 ROOT
