@<TRIPOS>MOLECULE
03A
   29    29     1     0     0
SMALL
abcg2


@<TRIPOS>ATOM
      1 NAA          1.9670    -0.0100    -0.6150 ns         1 03A      -0.462900
      2 NAE         -2.4330     1.9550     0.2190 n8         1 03A      -0.989200
      3 CAH         -1.5990     0.7810     0.3250 c3         1 03A       0.082500
      4 CAI         -0.2360     0.9330    -0.3210 c          1 03A       0.458100
      5 CAJ         -2.2880    -0.4330    -0.3200 c3         1 03A      -0.063400
      6 CAK         -3.5900    -0.8180     0.3730 c3         1 03A      -0.069400
      7 CAL         -4.2680    -2.0020    -0.3020 c3         1 03A      -0.090100
      8 CAM          0.8590    -0.0520     0.1270 c          1 03A       0.498100
      9 CAN          3.0910    -0.8490    -0.3570 cx         1 03A       0.042700
     10 CAO          4.4500    -0.2770    -0.5830 cx         1 03A      -0.132900
     11 CAP          3.9730    -0.5450     0.8120 cx         1 03A      -0.132900
     12 OBS          0.6880    -0.7820     1.0890 o          1 03A      -0.576100
     13 HNAA         1.9930     0.6140    -1.4070 hn         1 03A       0.339500
     14 H2          -2.5370     2.2250    -0.7520 hn         1 03A       0.407000
     15 HAH         -1.4460     0.5570     1.3840 h1         1 03A       0.101700
     16 OBR          0.0110     1.7640    -1.1600 o          1 03A      -0.516100
     17 HAJ         -2.4810    -0.2090    -1.3750 hc         1 03A       0.045700
     18 HAJA        -1.6120    -1.2920    -0.3070 hc         1 03A       0.045700
     19 HAK         -3.3800    -1.0600     1.4190 hc         1 03A       0.050700
     20 HAKA        -4.2640     0.0400     0.3830 hc         1 03A       0.050700
     21 HAL         -4.5370    -1.7680    -1.3340 hc         1 03A       0.031367
     22 HALA        -3.6180    -2.8780    -0.3210 hc         1 03A       0.031367
     23 HALB        -5.1840    -2.2830     0.2200 hc         1 03A       0.031367
     24 HAN          2.9410    -1.8950    -0.6070 h1         1 03A       0.091700
     25 HAO          5.2020    -0.9260    -1.0120 hc         1 03A       0.079700
     26 HAOA         4.5140     0.7550    -0.9040 hc         1 03A       0.079700
     27 HAP          3.7130     0.3070     1.4260 hc         1 03A       0.079700
     28 HAPA         4.3930    -1.3820     1.3530 hc         1 03A       0.079700
     29 HNAE        -2.0020     2.7400     0.6900 hn         1 03A       0.407000
@<TRIPOS>BOND
     1     1     8 1   
     2     1     9 1   
     3     1    13 1   
     4     2     3 1   
     5     2    14 1   
     6     2    29 1   
     7     3     4 1   
     8     3     5 1   
     9     3    15 1   
    10     4     8 1   
    11     4    16 2   
    12     5     6 1   
    13     5    17 1   
    14     5    18 1   
    15     6     7 1   
    16     6    19 1   
    17     6    20 1   
    18     7    21 1   
    19     7    22 1   
    20     7    23 1   
    21     8    12 2   
    22     9    10 1   
    23     9    11 1   
    24     9    24 1   
    25    10    11 1   
    26    10    25 1   
    27    10    26 1   
    28    11    27 1   
    29    11    28 1   
@<TRIPOS>SUBSTRUCTURE
     1 03A         1 TEMP              0 ****  ****    0 ROOT
