@<TRIPOS>MOLECULE
03B
  112   118     1     0     0
SMALL
No Charge or Current Charge


@<TRIPOS>ATOM
      1 N1          -9.0290     2.6850    -0.2290 n3         1 03B      -0.712600
      2 N2           2.0360    -4.1830     0.1890 nh         1 03B      -0.781400
      3 N3           3.2790    -1.8440    -1.2120 nh         1 03B      -0.774400
      4 N4           6.2930     3.7350     0.7910 na         1 03B       0.019000
      5 N5          -3.5010    -0.9160    -2.0920 no         1 03B       0.711200
      6 S1          -4.6750    -5.0830     0.8850 sy         1 03B       1.160600
      7 N6          -5.0640     0.7950    -0.2330 nu         1 03B      -0.930200
      8 N7          -3.2840    -5.2240     1.8160 nu         1 03B      -0.866100
      9 C2         -10.1980     1.8090    -0.4640 c3         1 03B       0.150100
     10 C3          -9.3810     3.8580     0.6080 c3         1 03B       0.150100
     11 C4           6.3640     4.3000     2.1510 c3         1 03B       0.060900
     12 O2          -2.7720    -1.7080    -2.7000 o          1 03B      -0.418000
     13 O3          -4.3790    -5.8250    -0.3420 o          1 03B      -0.540500
     14 O4          -5.7380    -5.4770     1.8110 o          1 03B      -0.540500
     15 O6          -3.7810     0.2050    -2.5340 o          1 03B      -0.418000
     16 C5          -0.1330     0.0560    -1.5990 ca         1 03B      -0.073000
     17 C6          -0.4940     1.4130    -1.6310 ca         1 03B      -0.112000
     18 C7          -0.5560    -0.7590    -0.5360 ca         1 03B      -0.112000
     19 C8           3.5010     0.9400    -3.7340 ca         1 03B      -0.103000
     20 C9           3.6860     0.7310     3.0730 ca         1 03B      -0.113500
     21 C10          1.9980     1.5210     1.5120 ca         1 03B      -0.113500
     22 C11         -1.2770    -3.8700     1.9480 ca         1 03B      -0.073500
     23 C12         -1.3410    -5.7810     0.4630 ca         1 03B      -0.073500
     24 C13         -1.2840     1.9540    -0.6020 ca         1 03B      -0.091500
     25 C14         -1.3400    -0.2180     0.4970 ca         1 03B      -0.091500
     26 C15          4.2970     1.8630    -3.0390 ca         1 03B      -0.081000
     27 C16          4.6800     1.4030     2.3390 ca         1 03B      -0.099000
     28 C17          2.9900     2.1920     0.7770 ca         1 03B      -0.099000
     29 C18          3.1740    -0.2930    -3.1460 ca         1 03B      -0.186000
     30 C19          0.0450    -3.6040     1.5470 ca         1 03B      -0.165000
     31 C20         -0.0140    -5.5230     0.0730 ca         1 03B      -0.165000
     32 C21         -5.6220    -1.1380     1.0900 ca         1 03B      -0.230000
     33 C22         -5.5430    -2.5040     1.3710 ca         1 03B       0.057000
     34 C23          4.4880     0.2960    -1.2030 ca         1 03B      -0.141000
     35 C24         -4.1190    -2.8000    -0.5780 ca         1 03B       0.118000
     36 C25         -6.5220     2.7100     0.2850 c3         1 03B      -0.093400
     37 C26         -7.8530     1.9200     0.2650 c3         1 03B       0.166800
     38 C27          2.4490    -4.2940    -1.2450 c6         1 03B       0.187300
     39 C28          2.9390    -3.2450     0.9190 c6         1 03B       0.187300
     40 C29          2.5110    -2.9030    -1.9590 c6         1 03B       0.157300
     41 C30          2.9530    -1.8280     0.2620 c6         1 03B       0.157300
     42 C31         -4.0520     2.7430     0.9550 c3         1 03B       0.018600
     43 C33          2.3470     0.7850     2.6540 ca         1 03B       0.101000
     44 C34         -1.9820    -4.9540     1.4010 ca         1 03B       0.179000
     45 C35         -1.7150     1.1360     0.4610 ca         1 03B      -0.129000
     46 C36          7.1060     4.1000    -0.2890 cc         1 03B      -0.143300
     47 C37          4.3400     2.1280     1.1790 ca         1 03B       0.029000
     48 C38          4.8020     1.5510    -1.7640 ca         1 03B       0.066000
     49 C39          0.6970    -4.4260     0.6000 ca         1 03B       0.319000
     50 C40          3.6480    -0.6270    -1.8580 ca         1 03B       0.252000
     51 C41         -4.9470    -0.5770    -0.0070 ca         1 03B       0.474000
     52 C42         -4.7860    -3.3350     0.5360 ca         1 03B      -0.400500
     53 C43         -4.2050    -1.4180    -0.8710 ca         1 03B      -0.315200
     54 C44          6.6830     3.3490    -1.3830 cd         1 03B      -0.147600
     55 C45          5.5550     2.5580    -0.9740 cd         1 03B      -0.061000
     56 C46          5.3860     2.7690     0.3770 cc         1 03B      -0.186000
     57 C47         -5.3130     1.8670     0.7500 c3         1 03B       0.237500
     58 HAB        -10.5490     1.3630     0.4760 h1         1 03B       0.030700
     59 HABA       -11.0270     2.3770    -0.9070 h1         1 03B       0.030700
     60 HABB        -9.9410     0.9950    -1.1560 h1         1 03B       0.030700
     61 HAC         -8.5650     4.5900     0.6340 h1         1 03B       0.030700
     62 HACA       -10.2650     4.3700     0.2030 h1         1 03B       0.030700
     63 HACB        -9.6060     3.5510     1.6380 h1         1 03B       0.030700
     64 HAD          7.2650     3.9280     2.6550 h1         1 03B       0.037367
     65 HADA         6.4020     5.3940     2.0940 h1         1 03B       0.037367
     66 HADB         5.4800     4.0120     2.7320 h1         1 03B       0.037367
     67 HAL          0.4700    -0.3640    -2.3990 ha         1 03B       0.145000
     68 HAM         -0.1600     2.0450    -2.4500 ha         1 03B       0.128000
     69 HAN         -0.2800    -1.8090    -0.5190 ha         1 03B       0.128000
     70 HAQ          0.9620     1.5620     1.1890 ha         1 03B       0.124500
     71 HAR         -1.7560    -3.2220     2.6780 ha         1 03B       0.121000
     72 HAS         -1.8630    -6.6400     0.0510 ha         1 03B       0.121000
     73 HAT         -1.5420     3.0090    -0.6260 ha         1 03B       0.116000
     74 HAU         -1.6630    -0.8500     1.3210 ha         1 03B       0.116000
     75 HAV          4.4940     2.8370    -3.4790 ha         1 03B       0.137000
     76 HAW          5.7190     1.3400     2.6540 ha         1 03B       0.126000
     77 HAY          2.5310    -0.9690    -3.7000 ha         1 03B       0.097000
     78 HAZ          0.5460    -2.7430     1.9740 ha         1 03B       0.124000
     79 HBA          0.4640    -6.1980    -0.6290 ha         1 03B       0.124000
     80 HBB         -6.2340    -0.5230     1.7380 ha         1 03B       0.125000
     81 HBC         -6.0750    -2.9060     2.2320 ha         1 03B       0.129000
     82 HBE         -3.5420    -3.4710    -1.2170 ha         1 03B       0.172000
     83 HBF         -6.3250     3.1170    -0.7140 hc         1 03B       0.060700
     84 HBFA        -6.6220     3.5630     0.9640 hc         1 03B       0.060700
     85 HBG         -8.0520     1.5450     1.2780 h1         1 03B       0.035200
     86 HBGA        -7.7100     1.0400    -0.3760 h1         1 03B       0.035200
     87 HBH          3.4440    -4.7610    -1.3030 h1         1 03B       0.061700
     88 HBHA         1.7740    -4.9450    -1.8170 h1         1 03B       0.061700
     89 HBI          2.6690    -3.1620     1.9810 h1         1 03B       0.061700
     90 HBIA         3.9650    -3.6420     0.9050 h1         1 03B       0.061700
     91 HBJ          1.4790    -2.5590    -2.1210 h1         1 03B       0.046450
     92 HBJA         2.9590    -3.0640    -2.9510 h1         1 03B       0.046450
     93 HBK          3.6760    -1.2270     0.8280 h1         1 03B       0.046450
     94 HBKA         1.9700    -1.3610     0.4150 h1         1 03B       0.046450
     95 HBL         -4.3190     3.5870     1.6020 h1         1 03B       0.080200
     96 HBLA        -3.7090     3.1520    -0.0020 h1         1 03B       0.080200
     97 HCE         -5.5640     1.4540     1.7350 h1         1 03B       0.069700
     98 H62         -3.5570    -4.7720     2.6780 hn         1 03B       0.483000
     99 H46         -4.6050     1.0820    -1.1000 hn         1 03B       0.536000
    100 HAO          3.1130     1.1930    -4.7180 ha         1 03B       0.101000
    101 HAP          3.9550     0.1600     3.9590 ha         1 03B       0.124500
    102 HAX          2.7150     2.7480    -0.1150 ha         1 03B       0.126000
    103 HBD          4.9150     0.0420    -0.2420 ha         1 03B       0.112000
    104 C32          7.3790     3.3610    -2.7280 c          1 03B       0.724600
    105 HAA          8.3630     5.4890     0.8390 hc         1 03B       0.041700
    106 HAAA         9.2030     4.6110    -0.4340 hc         1 03B       0.041700
    107 HAAB         8.0990     5.9390    -0.8450 hc         1 03B       0.041700
    108 S2          -2.6830     1.8170     1.8000 ss         1 03B      -0.198000
    109 C1           8.2500     5.0870    -0.1730 c3         1 03B      -0.021800
    110 Cl1          1.1080    -0.0830     3.5490 cl         1 03B      -0.238000
    111 O1           7.0560     2.5470    -3.5790 o          1 03B      -0.720000
    112 O5           8.2850     4.1560    -2.9340 o          1 03B      -0.720000
@<TRIPOS>BOND
     1     1     9 1   
     2     1    10 1   
     3     1    37 1   
     4     2    38 1   
     5     2    39 1   
     6     2    49 1   
     7     3    40 1   
     8     3    41 1   
     9     3    50 1   
    10     4    11 1   
    11     4    46 1   
    12     4    56 1   
    13     5    12 1   
    14     5    15 1   
    15     5    53 1   
    16     6     8 1   
    17     6    13 2   
    18     6    14 2   
    19     6    52 1   
    20     7    51 1   
    21     7    57 1   
    22     7    99 1   
    23     8    44 1   
    24     8    98 1   
    25     9    58 1   
    26     9    59 1   
    27     9    60 1   
    28    10    61 1   
    29    10    62 1   
    30    10    63 1   
    31    11    64 1   
    32    11    65 1   
    33    11    66 1   
    34    16    17 ar  
    35    16    18 ar  
    36    16    67 1   
    37    17    24 ar  
    38    17    68 1   
    39    18    25 ar  
    40    18    69 1   
    41    19    26 ar  
    42    19    29 ar  
    43    19   100 1   
    44    20    27 ar  
    45    20    43 ar  
    46    20   101 1   
    47    21    28 ar  
    48    21    43 ar  
    49    21    70 1   
    50    22    30 ar  
    51    22    44 ar  
    52    22    71 1   
    53    23    31 ar  
    54    23    44 ar  
    55    23    72 1   
    56    24    45 ar  
    57    24    73 1   
    58    25    45 ar  
    59    25    74 1   
    60    26    48 ar  
    61    26    75 1   
    62    27    47 ar  
    63    27    76 1   
    64    28    47 ar  
    65    28   102 1   
    66    29    50 ar  
    67    29    77 1   
    68    30    49 ar  
    69    30    78 1   
    70    31    49 ar  
    71    31    79 1   
    72    32    33 ar  
    73    32    51 ar  
    74    32    80 1   
    75    33    52 ar  
    76    33    81 1   
    77    34    48 ar  
    78    34    50 ar  
    79    34   103 1   
    80    35    52 ar  
    81    35    53 ar  
    82    35    82 1   
    83    36    37 1   
    84    36    57 1   
    85    36    83 1   
    86    36    84 1   
    87    37    85 1   
    88    37    86 1   
    89    38    40 1   
    90    38    87 1   
    91    38    88 1   
    92    39    41 1   
    93    39    89 1   
    94    39    90 1   
    95    40    91 1   
    96    40    92 1   
    97    41    93 1   
    98    41    94 1   
    99    42    57 1   
   100    42    95 1   
   101    42    96 1   
   102    42   108 1   
   103    43   110 1   
   104    45   108 1   
   105    46    54 2   
   106    46   109 1   
   107    47    56 1   
   108    48    55 1   
   109    51    53 ar  
   110    54    55 1   
   111    54   104 1   
   112    55    56 2   
   113    57    97 1   
   114   104   111 1   
   115   104   112 1   
   116   105   109 1   
   117   106   109 1   
   118   107   109 1   
@<TRIPOS>SUBSTRUCTURE
     1 03B         1 TEMP              0 ****  ****    0 ROOT
