@<TRIPOS>MOLECULE
03B
  112   118     1     0     0
SMALL
bcc


@<TRIPOS>ATOM
      1 N1          -8.2990     3.1550    -0.7720 n3         1 03B      -0.712600
      2 N2           2.2720    -4.3960     0.2540 nh         1 03B      -0.643000
      3 N3           3.2670    -2.1130    -1.1800 nh         1 03B      -0.636000
      4 N4           5.7180     3.7160     0.5480 na         1 03B      -0.053100
      5 N5          -3.3720    -0.6660    -1.9710 no         1 03B       0.331200
      6 S1          -4.3760    -4.9640     0.6060 sy         1 03B       1.302200
      7 N6          -4.7210     0.9330     0.0870 nu         1 03B      -0.736600
      8 N7          -3.1130    -5.3300     1.6190 nu         1 03B      -0.672500
      9 C2          -9.2780     2.4670    -1.5860 c3         1 03B       0.150100
     10 C3          -8.9520     4.0520     0.1570 c3         1 03B       0.150100
     11 C4           5.9030     4.2770     1.8660 c3         1 03B       0.031600
     12 O2          -2.7590    -1.4050    -2.7070 o          1 03B      -0.228000
     13 O3          -4.0500    -5.5180    -0.6960 o          1 03B      -0.611300
     14 O4          -5.5680    -5.3970     1.3160 o          1 03B      -0.611300
     15 O6          -3.4790     0.5280    -2.1940 o          1 03B      -0.228000
     16 C5          -0.1360     0.3400    -1.0400 ca         1 03B      -0.091000
     17 C6          -0.4500     1.6770    -0.8290 ca         1 03B      -0.130000
     18 C7          -0.6460    -0.6260    -0.1860 ca         1 03B      -0.130000
     19 C8           2.8640     0.6390    -3.6480 ca         1 03B      -0.121000
     20 C9           3.8590     0.5490     3.1760 ca         1 03B      -0.131500
     21 C10          1.9120     1.0690     1.8500 ca         1 03B      -0.131500
     22 C11         -1.0660    -4.0140     1.8400 ca         1 03B      -0.091500
     23 C12         -1.1330    -5.8240     0.2860 ca         1 03B      -0.091500
     24 C13         -1.2610     2.0480     0.2320 ca         1 03B      -0.109500
     25 C14         -1.4750    -0.2630     0.8670 ca         1 03B      -0.109500
     26 C15          3.5940     1.6480    -3.0470 ca         1 03B      -0.099000
     27 C16          4.6350     1.3160     2.3180 ca         1 03B      -0.117000
     28 C17          2.6990     1.8300     1.0050 ca         1 03B      -0.117000
     29 C18          2.7420    -0.6190    -3.0640 ca         1 03B      -0.204000
     30 C19          0.2630    -3.7780     1.5180 ca         1 03B      -0.183000
     31 C20          0.1840    -5.5820    -0.0510 ca         1 03B      -0.183000
     32 C21         -5.1160    -1.0860     1.3270 ca         1 03B      -0.248000
     33 C22         -5.0450    -2.4420     1.4500 ca         1 03B       0.039000
     34 C23          4.1660     0.1250    -1.2890 ca         1 03B      -0.159000
     35 C24         -3.9170    -2.5980    -0.6610 ca         1 03B       0.100000
     36 C25         -6.1580     2.8720     0.4410 c3         1 03B      -0.093400
     37 C26         -7.4150     2.2140    -0.1110 c3         1 03B       0.166800
     38 C27          2.7020    -4.4950    -1.1320 c6         1 03B       0.187300
     39 C28          3.0560    -3.3720     0.9150 c6         1 03B       0.187300
     40 C29          2.5390    -3.1670    -1.8590 c6         1 03B       0.157300
     41 C30          2.9240    -2.0180     0.2380 c6         1 03B       0.157300
     42 C31         -4.0400     2.6040     1.7530 c3         1 03B      -0.029300
     43 C33          2.5030     0.4210     2.9220 ca         1 03B       0.009400
     44 C34         -1.7790    -5.0380     1.2350 ca         1 03B       0.040600
     45 C35         -1.7950     1.0750     1.0760 ca         1 03B      -0.002100
     46 C36          6.3370     4.1760    -0.5800 cc         1 03B      -0.092600
     47 C37          4.0730     1.9560     1.2120 ca         1 03B       0.029000
     48 C38          4.2610     1.3940    -1.8450 ca         1 03B       0.066000
     49 C39          0.9270    -4.5560     0.5590 ca         1 03B       0.180600
     50 C40          3.3780    -0.8860    -1.8490 ca         1 03B       0.113600
     51 C41         -4.6130    -0.3940     0.1920 ca         1 03B       0.335600
     52 C42         -4.4460    -3.2150     0.4440 ca         1 03B      -0.400500
     53 C43         -3.9890    -1.2130    -0.7960 ca         1 03B      -0.315200
     54 C44          5.9190     3.4060    -1.6490 cd         1 03B      -0.147600
     55 C45          5.0070     2.4390    -1.1300 cd         1 03B      -0.061000
     56 C46          4.9000     2.6650     0.2290 cc         1 03B      -0.135300
     57 C47         -5.2020     1.8680     1.0830 c3         1 03B       0.237500
     58 HAB         -9.9560     1.8230    -1.0050 h1         1 03B       0.030700
     59 HABA        -9.8930     3.1920    -2.1230 h1         1 03B       0.030700
     60 HABB        -8.7780     1.8410    -2.3270 h1         1 03B       0.030700
     61 HAC         -8.2240     4.6350     0.7210 h1         1 03B       0.030700
     62 HACA        -9.5780     4.7590    -0.3900 h1         1 03B       0.030700
     63 HACB        -9.5950     3.5270     0.8820 h1         1 03B       0.030700
     64 HAD          6.7850     3.8650     2.3590 h1         1 03B       0.037367
     65 HADA         6.0190     5.3560     1.7990 h1         1 03B       0.037367
     66 HADB         5.0340     4.0710     2.4850 h1         1 03B       0.037367
     67 HAL          0.5170     0.0640    -1.8560 ha         1 03B       0.163000
     68 HAM         -0.0470     2.4370    -1.4850 ha         1 03B       0.146000
     69 HAN         -0.4130    -1.6730    -0.3370 ha         1 03B       0.146000
     70 HAQ          0.8520     0.9680     1.6610 ha         1 03B       0.142500
     71 HAR         -1.5460    -3.3900     2.5860 ha         1 03B       0.139000
     72 HAS         -1.6510    -6.6530    -0.1750 ha         1 03B       0.139000
     73 HAT         -1.4780     3.0960     0.4000 ha         1 03B       0.134000
     74 HAU         -1.8890    -1.0250     1.5160 ha         1 03B       0.134000
     75 HAV          3.6340     2.6300    -3.4970 ha         1 03B       0.155000
     76 HAW          5.7000     1.3810     2.5000 ha         1 03B       0.144000
     77 HAY          2.1290    -1.3610    -3.5560 ha         1 03B       0.115000
     78 HAZ          0.7620    -2.9630     2.0220 ha         1 03B       0.142000
     79 HBA          0.6500    -6.2410    -0.7710 ha         1 03B       0.142000
     80 HBB         -5.5790    -0.5340     2.1280 ha         1 03B       0.143000
     81 HBC         -5.4620    -2.9070     2.3330 ha         1 03B       0.147000
     82 HBE         -3.4450    -3.1800    -1.4380 ha         1 03B       0.190000
     83 HBF         -5.6460     3.4130    -0.3610 hc         1 03B       0.060700
     84 HBFA        -6.4090     3.6130     1.2040 hc         1 03B       0.060700
     85 HBG         -7.9310     1.6670     0.6980 h1         1 03B       0.035200
     86 HBGA        -7.1210     1.4630    -0.8490 h1         1 03B       0.035200
     87 HBH          3.7540    -4.7930    -1.1430 h1         1 03B       0.061700
     88 HBHA         2.1520    -5.2640    -1.6670 h1         1 03B       0.061700
     89 HBI          2.7900    -3.2940     1.9690 h1         1 03B       0.061700
     90 HBIA         4.1020    -3.6880     0.8820 h1         1 03B       0.061700
     91 HBJ          1.4640    -2.9410    -1.9510 h1         1 03B       0.046450
     92 HBJA         2.9290    -3.2820    -2.8730 h1         1 03B       0.046450
     93 HBK          3.5890    -1.3190     0.7400 h1         1 03B       0.046450
     94 HBKA         1.9040    -1.6290     0.3710 h1         1 03B       0.046450
     95 HBL         -4.4250     3.2020     2.5810 h1         1 03B       0.080200
     96 HBLA        -3.5570     3.2940     1.0590 h1         1 03B       0.080200
     97 HCE         -5.7450     1.3280     1.8560 h1         1 03B       0.069700
     98 H62         -3.3340    -5.1240     2.5880 hn         1 03B       0.427800
     99 H46         -4.3180     1.3400    -0.7450 hn         1 03B       0.480800
    100 HAO          2.3530     0.8330    -4.5830 ha         1 03B       0.119000
    101 HAP          4.3150     0.0410     4.0150 ha         1 03B       0.142500
    102 HAX          2.2360     2.3140     0.1550 ha         1 03B       0.144000
    103 HBD          4.7220    -0.0780    -0.3840 ha         1 03B       0.130000
    104 C32          6.4290     3.5030    -3.0610 c          1 03B       0.935200
    105 HAA          8.1300     5.0680     0.2000 hc         1 03B       0.041700
    106 HAAA         7.7680     5.4460    -1.4870 hc         1 03B       0.041700
    107 HAAB         6.8700     6.2270    -0.1950 hc         1 03B       0.041700
    108 S2          -2.7930     1.5040     2.4770 ss         1 03B      -0.277000
    109 C1           7.3270     5.2850    -0.5080 c3         1 03B      -0.021800
    110 CL1          1.5290    -0.5970     3.9370 cl         1 03B      -0.146400
    111 O1           6.5440     2.4330    -3.6890 o          1 03B      -0.825300
    112 O5           6.7090     4.6450    -3.4910 o          1 03B      -0.825300
@<TRIPOS>BOND
     1     1     9 1   
     2     1    10 1   
     3     1    37 1   
     4     2    38 1   
     5     2    39 1   
     6     2    49 1   
     7     3    40 1   
     8     3    41 1   
     9     3    50 1   
    10     4    11 1   
    11     4    46 1   
    12     4    56 1   
    13     5    12 1   
    14     5    15 1   
    15     5    53 1   
    16     6     8 1   
    17     6    13 2   
    18     6    14 2   
    19     6    52 1   
    20     7    51 1   
    21     7    57 1   
    22     7    99 1   
    23     8    44 1   
    24     8    98 1   
    25     9    58 1   
    26     9    59 1   
    27     9    60 1   
    28    10    61 1   
    29    10    62 1   
    30    10    63 1   
    31    11    64 1   
    32    11    65 1   
    33    11    66 1   
    34    16    17 ar  
    35    16    18 ar  
    36    16    67 1   
    37    17    24 ar  
    38    17    68 1   
    39    18    25 ar  
    40    18    69 1   
    41    19    26 ar  
    42    19    29 ar  
    43    19   100 1   
    44    20    27 ar  
    45    20    43 ar  
    46    20   101 1   
    47    21    28 ar  
    48    21    43 ar  
    49    21    70 1   
    50    22    30 ar  
    51    22    44 ar  
    52    22    71 1   
    53    23    31 ar  
    54    23    44 ar  
    55    23    72 1   
    56    24    45 ar  
    57    24    73 1   
    58    25    45 ar  
    59    25    74 1   
    60    26    48 ar  
    61    26    75 1   
    62    27    47 ar  
    63    27    76 1   
    64    28    47 ar  
    65    28   102 1   
    66    29    50 ar  
    67    29    77 1   
    68    30    49 ar  
    69    30    78 1   
    70    31    49 ar  
    71    31    79 1   
    72    32    33 ar  
    73    32    51 ar  
    74    32    80 1   
    75    33    52 ar  
    76    33    81 1   
    77    34    48 ar  
    78    34    50 ar  
    79    34   103 1   
    80    35    52 ar  
    81    35    53 ar  
    82    35    82 1   
    83    36    37 1   
    84    36    57 1   
    85    36    83 1   
    86    36    84 1   
    87    37    85 1   
    88    37    86 1   
    89    38    40 1   
    90    38    87 1   
    91    38    88 1   
    92    39    41 1   
    93    39    89 1   
    94    39    90 1   
    95    40    91 1   
    96    40    92 1   
    97    41    93 1   
    98    41    94 1   
    99    42    57 1   
   100    42    95 1   
   101    42    96 1   
   102    42   108 1   
   103    43   110 1   
   104    45   108 1   
   105    46    54 2   
   106    46   109 1   
   107    47    56 1   
   108    48    55 1   
   109    51    53 ar  
   110    54    55 1   
   111    54   104 1   
   112    55    56 2   
   113    57    97 1   
   114   104   111 1   
   115   104   112 1   
   116   105   109 1   
   117   106   109 1   
   118   107   109 1   
@<TRIPOS>SUBSTRUCTURE
     1 03B         1 TEMP              0 ****  ****    0 ROOT
