@<TRIPOS>MOLECULE
03C
   57    60     1     0     0
SMALL
No Charge or Current Charge


@<TRIPOS>ATOM
      1 N1          -4.8910     0.3300    -0.3400 na         1 03C       0.157000
      2 C2          -6.2690     0.4410    -0.1370 ca         1 03C      -0.009200
      3 C3          -4.1470    -0.8190    -0.0670 cc         1 03C       0.345000
      4 N4          -4.1820     1.3970    -0.8360 nc         1 03C      -0.509800
      5 C5          -6.7940     0.8360     1.1190 ca         1 03C      -0.048300
      6 C6          -7.1440     0.1500    -1.2020 ca         1 03C      -0.098000
      7 C7          -2.8870    -0.4560    -0.4120 cd         1 03C      -0.392600
      8 N8          -4.6460    -1.9940     0.4190 nv         1 03C      -1.081000
      9 C9          -2.9600     0.8890    -0.8630 cd         1 03C       0.315900
     10 C10         -8.1910     0.9280     1.2830 ca         1 03C      -0.112000
     11 C11         -5.8760     1.1640     2.2940 c3         1 03C      -0.049800
     12 C12         -8.5340     0.2460    -1.0270 ca         1 03C      -0.111000
     13 C13         -1.6880    -1.3080    -0.2960 c          1 03C       0.644300
     14 C14         -9.0570     0.6350     0.2160 ca         1 03C      -0.095000
     15 C15         -0.3840    -0.7630    -0.8170 ca         1 03C      -0.145600
     16 O16         -1.7310    -2.4240     0.2100 o          1 03C      -0.588100
     17 C17          0.7740    -0.8380    -0.0150 ca         1 03C      -0.061000
     18 C18         -0.2910    -0.2140    -2.1130 ca         1 03C      -0.076000
     19 C19          2.0100    -0.3450    -0.4830 ca         1 03C      -0.092300
     20 C20          0.9370     0.2780    -2.5850 ca         1 03C      -0.121000
     21 C21          3.2570    -0.4260     0.4110 c6         1 03C      -0.011400
     22 C22          2.0810     0.2170    -1.7740 ca         1 03C      -0.091000
     23 C23          4.3820    -1.2800    -0.2310 c6         1 03C      -0.100900
     24 C24          3.8000     0.9820     0.7780 c6         1 03C      -0.100900
     25 C25          5.6140    -1.3450     0.7010 c6         1 03C       0.206300
     26 C26          5.1040     0.9000     1.6200 c6         1 03C       0.206300
     27 N27          6.1300     0.0140     1.0090 n3         1 03C      -0.755500
     28 S28          7.3220     0.7120    -0.0340 s6         1 03C       1.216100
     29 O29          8.2230     1.4860     0.8250 o          1 03C      -0.535500
     30 O30          7.8690    -0.3820    -0.8430 o          1 03C      -0.535500
     31 C31          6.4470     1.8030    -1.1430 c3         1 03C      -0.379100
     32 H6          -6.7430    -0.1520    -2.1680 ha         1 03C       0.132000
     33 HN8         -5.5860    -2.0210     0.8090 hn         1 03C       0.499000
     34 HN8A        -3.9860    -2.7100     0.7220 hn         1 03C       0.499000
     35 H9          -2.1500     1.5210    -1.2030 h4         1 03C       0.042100
     36 H10         -8.6100     1.2290     2.2410 ha         1 03C       0.119000
     37 H11         -5.1840     1.9760     2.0380 hc         1 03C       0.051700
     38 H11A        -6.4420     1.4840     3.1770 hc         1 03C       0.051700
     39 H11B        -5.2790     0.2920     2.5850 hc         1 03C       0.051700
     40 H12         -9.2050     0.0200    -1.8530 ha         1 03C       0.122000
     41 H14        -10.1340     0.7100     0.3540 ha         1 03C       0.119000
     42 H17          0.7080    -1.2750     0.9790 ha         1 03C       0.125000
     43 H18         -1.1650    -0.1780    -2.7610 ha         1 03C       0.123000
     44 H20          1.0020     0.7030    -3.5840 ha         1 03C       0.116000
     45 H21          2.9740    -0.9190     1.3520 hc         1 03C       0.058700
     46 H22          3.0230     0.6030    -2.1550 ha         1 03C       0.109000
     47 H23          4.0130    -2.2970    -0.4190 hc         1 03C       0.052200
     48 H23A         4.6760    -0.8720    -1.2060 hc         1 03C       0.052200
     49 H24          3.9670     1.5700    -0.1300 hc         1 03C       0.052200
     50 H24A         3.0380     1.5300     1.3480 hc         1 03C       0.052200
     51 H25          5.3070    -1.8380     1.6360 h1         1 03C       0.071200
     52 H25A         6.3860    -1.9930     0.2610 h1         1 03C       0.071200
     53 H26          5.5010     1.9110     1.7950 h1         1 03C       0.071200
     54 H26A         4.8350     0.5030     2.6100 h1         1 03C       0.071200
     55 H31          5.9970     2.6020    -0.5470 h1         1 03C       0.098700
     56 H31A         7.1850     2.2100    -1.8420 h1         1 03C       0.098700
     57 H31B         5.6940     1.2120    -1.6710 h1         1 03C       0.098700
@<TRIPOS>BOND
     1     1     2 1   
     2     1     3 1   
     3     1     4 1   
     4     2     5 ar  
     5     2     6 ar  
     6     3     7 2   
     7     3     8 1   
     8     4     9 2   
     9     5    10 ar  
    10     5    11 1   
    11     6    12 ar  
    12     6    32 1   
    13     7     9 1   
    14     7    13 1   
    15     8    33 1   
    16     8    34 1   
    17     9    35 1   
    18    10    14 ar  
    19    10    36 1   
    20    11    37 1   
    21    11    38 1   
    22    11    39 1   
    23    12    14 ar  
    24    12    40 1   
    25    13    15 1   
    26    13    16 2   
    27    14    41 1   
    28    15    17 ar  
    29    15    18 ar  
    30    17    19 ar  
    31    17    42 1   
    32    18    20 ar  
    33    18    43 1   
    34    19    21 1   
    35    19    22 ar  
    36    20    22 ar  
    37    20    44 1   
    38    21    23 1   
    39    21    24 1   
    40    21    45 1   
    41    22    46 1   
    42    23    25 1   
    43    23    47 1   
    44    23    48 1   
    45    24    26 1   
    46    24    49 1   
    47    24    50 1   
    48    25    27 1   
    49    25    51 1   
    50    25    52 1   
    51    26    27 1   
    52    26    53 1   
    53    26    54 1   
    54    27    28 1   
    55    28    29 2   
    56    28    30 2   
    57    28    31 1   
    58    31    55 1   
    59    31    56 1   
    60    31    57 1   
@<TRIPOS>SUBSTRUCTURE
     1 03C         1 TEMP              0 ****  ****    0 ROOT
