@<TRIPOS>MOLECULE
03C
   57    60     1     0     0
SMALL
abcg2


@<TRIPOS>ATOM
      1 N1          -4.9970     0.2720    -0.2740 na         1 03C       0.157000
      2 C2          -6.3950     0.2700    -0.0430 ca         1 03C      -0.009200
      3 C3          -4.1550    -0.7640    -0.1150 cc         1 03C       0.345000
      4 N4          -4.3570     1.4120    -0.6610 nc         1 03C      -0.509800
      5 C5          -6.9120     0.9580     1.0570 ca         1 03C      -0.048300
      6 C6          -7.2140    -0.4350    -0.9150 ca         1 03C      -0.098000
      7 C7          -2.8750    -0.2830    -0.4400 cd         1 03C      -0.392600
      8 N8          -4.5540    -1.9960     0.2420 nv         1 03C      -1.081000
      9 C9          -3.1030     1.0820    -0.7620 cd         1 03C       0.315900
     10 C10         -8.2920     0.9220     1.2400 ca         1 03C      -0.112000
     11 C11         -6.0300     1.7180     2.0010 c3         1 03C      -0.049800
     12 C12         -8.5840    -0.4660    -0.7030 ca         1 03C      -0.111000
     13 C13         -1.6620    -1.0500    -0.3480 c          1 03C       0.644300
     14 C14         -9.1210     0.2200     0.3770 ca         1 03C      -0.095000
     15 C15         -0.3860    -0.4450    -0.8260 ca         1 03C      -0.145600
     16 O16         -1.6490    -2.1790     0.1350 o          1 03C      -0.588100
     17 C17          0.7790    -0.6850    -0.0980 ca         1 03C      -0.061000
     18 C18         -0.3160     0.2970    -2.0010 ca         1 03C      -0.076000
     19 C19          2.0040    -0.1700    -0.5020 ca         1 03C      -0.092300
     20 C20          0.9060     0.7990    -2.4270 ca         1 03C      -0.121000
     21 C21          3.2440    -0.4200     0.3150 c6         1 03C      -0.011400
     22 C22          2.0530     0.5760    -1.6800 ca         1 03C      -0.091000
     23 C23          4.3080    -1.1920    -0.4700 c6         1 03C      -0.100900
     24 C24          3.8370     0.8790     0.8690 c6         1 03C      -0.100900
     25 C25          5.5510    -1.4240     0.3780 c6         1 03C       0.206300
     26 C26          5.0960     0.6080     1.6810 c6         1 03C       0.206300
     27 N27          6.0790    -0.1850     0.9450 n3         1 03C      -0.755500
     28 S28          7.3880     0.5400     0.2730 s6         1 03C       1.216100
     29 O29          7.8450     1.5590     1.2080 o          1 03C      -0.535500
     30 O30          8.3120    -0.5130    -0.1250 o          1 03C      -0.535500
     31 C31          6.8620     1.3690    -1.2130 c3         1 03C      -0.379100
     32 H6          -6.7770    -0.9520    -1.7600 ha         1 03C       0.132000
     33 HN8         -5.4530    -2.1120     0.6820 hn         1 03C       0.499000
     34 HN8A        -3.8310    -2.6240     0.5510 hn         1 03C       0.499000
     35 H9          -2.3730     1.8250    -1.0460 h4         1 03C       0.042100
     36 H10         -8.7230     1.4470     2.0840 ha         1 03C       0.119000
     37 H11         -5.6920     2.6540     1.5560 hc         1 03C       0.051700
     38 H11A        -6.5670     1.9590     2.9160 hc         1 03C       0.051700
     39 H11B        -5.1390     1.1520     2.2730 hc         1 03C       0.051700
     40 H12         -9.2230    -1.0160    -1.3800 ha         1 03C       0.122000
     41 H14        -10.1890     0.2060     0.5520 ha         1 03C       0.119000
     42 H17          0.7280    -1.2730     0.8100 ha         1 03C       0.125000
     43 H18         -1.2010     0.4610    -2.6020 ha         1 03C       0.123000
     44 H20          0.9640     1.3650    -3.3480 ha         1 03C       0.116000
     45 H21          2.9560    -1.0390     1.1730 hc         1 03C       0.058700
     46 H22          2.9950     0.9850    -2.0260 ha         1 03C       0.109000
     47 H23          3.9120    -2.1590    -0.7860 hc         1 03C       0.052200
     48 H23A         4.5760    -0.6510    -1.3820 hc         1 03C       0.052200
     49 H24          4.0560     1.5770     0.0550 hc         1 03C       0.052200
     50 H24A         3.1090     1.3780     1.5120 hc         1 03C       0.052200
     51 H25          5.3070    -2.0820     1.2180 h1         1 03C       0.071200
     52 H25A         6.3240    -1.9300    -0.1960 h1         1 03C       0.071200
     53 H26          5.5480     1.5380     2.0180 h1         1 03C       0.071200
     54 H26A         4.8360     0.0410     2.5800 h1         1 03C       0.071200
     55 H31          6.1310     2.1370    -0.9670 h1         1 03C       0.098700
     56 H31A         7.7360     1.8290    -1.6710 h1         1 03C       0.098700
     57 H31B         6.4280     0.6440    -1.8980 h1         1 03C       0.098700
@<TRIPOS>BOND
     1     1     2 1   
     2     1     3 1   
     3     1     4 1   
     4     2     5 ar  
     5     2     6 ar  
     6     3     7 2   
     7     3     8 1   
     8     4     9 2   
     9     5    10 ar  
    10     5    11 1   
    11     6    12 ar  
    12     6    32 1   
    13     7     9 1   
    14     7    13 1   
    15     8    33 1   
    16     8    34 1   
    17     9    35 1   
    18    10    14 ar  
    19    10    36 1   
    20    11    37 1   
    21    11    38 1   
    22    11    39 1   
    23    12    14 ar  
    24    12    40 1   
    25    13    15 1   
    26    13    16 2   
    27    14    41 1   
    28    15    17 ar  
    29    15    18 ar  
    30    17    19 ar  
    31    17    42 1   
    32    18    20 ar  
    33    18    43 1   
    34    19    21 1   
    35    19    22 ar  
    36    20    22 ar  
    37    20    44 1   
    38    21    23 1   
    39    21    24 1   
    40    21    45 1   
    41    22    46 1   
    42    23    25 1   
    43    23    47 1   
    44    23    48 1   
    45    24    26 1   
    46    24    49 1   
    47    24    50 1   
    48    25    27 1   
    49    25    51 1   
    50    25    52 1   
    51    26    27 1   
    52    26    53 1   
    53    26    54 1   
    54    27    28 1   
    55    28    29 2   
    56    28    30 2   
    57    28    31 1   
    58    31    55 1   
    59    31    56 1   
    60    31    57 1   
@<TRIPOS>SUBSTRUCTURE
     1 03C         1 TEMP              0 ****  ****    0 ROOT
