@<TRIPOS>MOLECULE
03D
   85    87     1     0     0
SMALL
No Charge or Current Charge


@<TRIPOS>ATOM
      1 C1           2.7550     0.0760    -1.2470 c3         1 03D       0.137300
      2 C2           3.7240     1.0150    -0.4600 c3         1 03D       0.139300
      3 C3           4.6350     1.8660    -1.3790 c3         1 03D      -0.062100
      4 C4           5.4660     2.8810    -0.6000 ca         1 03D      -0.076300
      5 C5           6.8560     2.7060    -0.4530 ca         1 03D      -0.103000
      6 C6           7.6170     3.6410     0.2710 ca         1 03D      -0.107500
      7 C7           6.9920     4.7570     0.8520 ca         1 03D      -0.108000
      8 C8           5.6060     4.9390     0.7080 ca         1 03D      -0.107500
      9 C9           4.8460     4.0040    -0.0170 ca         1 03D      -0.103000
     10 O10          3.5300    -0.9580    -1.8660 oh         1 03D      -0.660000
     11 O11          4.5490     0.2330     0.4240 oh         1 03D      -0.649000
     12 C12         -0.7710    -1.1700    -0.0860 c          1 03D       0.596100
     13 C13          0.4300    -1.1620    -1.0530 c3         1 03D      -0.131700
     14 C14          1.6710    -0.5530    -0.3290 c3         1 03D      -0.103400
     15 C15         -0.5370    -3.0910    -2.4510 cx         1 03D      -0.132700
     16 C16         -1.6310    -3.8870    -1.7790 cx         1 03D      -0.131900
     17 C17         -0.6870    -4.5650    -2.7450 cx         1 03D      -0.131900
     18 C18          0.6670    -2.5680    -1.6690 c3         1 03D      -0.037400
     19 C20         -4.2500    -0.7150     0.0800 c3         1 03D       0.129300
     20 C21         -2.9280     0.0530     0.4090 c3         1 03D       0.077700
     21 C22         -3.0980     1.5960     0.3480 c3         1 03D      -0.090400
     22 C23         -1.7990     2.4470     0.5470 c6         1 03D      -0.057700
     23 C24         -2.1050     3.9660     0.4260 c6         1 03D      -0.075900
     24 C25         -0.8210     4.8200     0.5810 c6         1 03D      -0.072400
     25 C26         -0.1020     4.5150     1.9170 c6         1 03D      -0.076400
     26 C27          0.2060     3.0040     2.0510 c6         1 03D      -0.072400
     27 C28         -1.0790     2.1520     1.8960 c6         1 03D      -0.075900
     28 N29         -1.8110    -0.3490    -0.4650 ns         1 03D      -0.511900
     29 C31         -4.2700    -2.1740     0.6530 c3         1 03D       0.136300
     30 C32         -5.5270    -2.9920     0.2330 c3         1 03D      -0.104400
     31 C33         -5.6020    -4.4510     0.7730 c3         1 03D      -0.055700
     32 C34         -6.9390    -5.1150     0.3730 c3         1 03D      -0.089600
     33 C35         -4.4040    -5.3200     0.3220 c3         1 03D      -0.089600
     34 O36         -4.2110    -2.1260     2.0900 oh         1 03D      -0.643000
     35 H1           2.2450     0.6810    -2.0100 h1         1 03D       0.069700
     36 H2           3.1070     1.7120     0.1240 h1         1 03D       0.077700
     37 H3           5.2850     1.2060    -1.9670 hc         1 03D       0.058200
     38 H3A          4.0070     2.3960    -2.1050 hc         1 03D       0.058200
     39 H5           7.3500     1.8440    -0.8980 ha         1 03D       0.106500
     40 H6           8.6900     3.4990     0.3820 ha         1 03D       0.112000
     41 H7           7.5800     5.4800     1.4130 ha         1 03D       0.112000
     42 H8           5.1210     5.8030     1.1560 ha         1 03D       0.112000
     43 H9           3.7740     4.1540    -0.1240 ha         1 03D       0.106500
     44 HO10         4.2560    -1.1280    -1.2240 ho         1 03D       0.443000
     45 HO11         5.1780     0.8580     0.8470 ho         1 03D       0.439000
     46 H13          0.1790    -0.4890    -1.8820 hc         1 03D       0.052700
     47 H14          2.1230    -1.3020     0.3340 hc         1 03D       0.066700
     48 H14A         1.3060     0.2440     0.3310 hc         1 03D       0.066700
     49 H15         -0.8420    -2.4130    -3.2450 hc         1 03D       0.070700
     50 H16         -1.5220    -4.1200    -0.7230 hc         1 03D       0.073450
     51 H16A        -2.6550    -3.7170    -2.1040 hc         1 03D       0.073450
     52 H17         -1.0770    -4.8510    -3.7190 hc         1 03D       0.073450
     53 H17A         0.0520    -5.2490    -2.3330 hc         1 03D       0.073450
     54 H18          1.5250    -2.5300    -2.3490 hc         1 03D       0.057700
     55 H18A         0.9380    -3.2720    -0.8710 hc         1 03D       0.057700
     56 H20         -5.0830    -0.1750     0.5530 h1         1 03D       0.067700
     57 H21         -2.6570    -0.1890     1.4460 h1         1 03D       0.099700
     58 H22         -3.5420     1.8540    -0.6220 hc         1 03D       0.050700
     59 H22A        -3.8410     1.8860     1.1020 hc         1 03D       0.050700
     60 H23         -1.1160     2.1840    -0.2730 hc         1 03D       0.036700
     61 H24         -2.5690     4.1790    -0.5460 hc         1 03D       0.042950
     62 H24A        -2.8370     4.2620     1.1910 hc         1 03D       0.042950
     63 H25         -0.1410     4.6200    -0.2590 hc         1 03D       0.037700
     64 H25A        -1.0750     5.8870     0.5300 hc         1 03D       0.037700
     65 H26          0.8300     5.0930     1.9800 hc         1 03D       0.039200
     66 H26A        -0.7300     4.8410     2.7580 hc         1 03D       0.039200
     67 H27          0.9400     2.7080     1.2890 hc         1 03D       0.037700
     68 H27A         0.6700     2.8040     3.0260 hc         1 03D       0.037700
     69 H28         -1.7600     2.3540     2.7350 hc         1 03D       0.042950
     70 H28A        -0.8070     1.0910     1.9640 hc         1 03D       0.042950
     71 HN29        -1.6740     0.1720    -1.3220 hn         1 03D       0.306500
     72 H31         -3.3790    -2.6860     0.2650 h1         1 03D       0.088700
     73 H32         -6.4230    -2.4460     0.5550 hc         1 03D       0.046700
     74 H32A        -5.5740    -3.0360    -0.8610 hc         1 03D       0.046700
     75 H33         -5.5850    -4.4140     1.8700 hc         1 03D       0.050700
     76 H34         -7.0250    -5.1980    -0.7170 hc         1 03D       0.033533
     77 H34A        -7.0160    -6.1230     0.8000 hc         1 03D       0.033533
     78 H34B        -7.7900    -4.5290     0.7410 hc         1 03D       0.033533
     79 H35         -4.5150    -6.3490     0.6830 hc         1 03D       0.033533
     80 H35A        -4.3300    -5.3480    -0.7720 hc         1 03D       0.033533
     81 H35B        -3.4610    -4.9320     0.7250 hc         1 03D       0.033533
     82 HO36        -5.1260    -1.9790     2.4130 ho         1 03D       0.432000
     83 O19         -0.7860    -1.8150     0.9520 o          1 03D      -0.590100
     84 O30         -4.4410    -0.7300    -1.3490 oh         1 03D      -0.655000
     85 HO30        -3.5840    -1.0040    -1.7370 ho         1 03D       0.446000
@<TRIPOS>BOND
     1     1     2 1   
     2     1    10 1   
     3     1    14 1   
     4     1    35 1   
     5     2     3 1   
     6     2    11 1   
     7     2    36 1   
     8     3     4 1   
     9     3    37 1   
    10     3    38 1   
    11     4     5 ar  
    12     4     9 ar  
    13     5     6 ar  
    14     5    39 1   
    15     6     7 ar  
    16     6    40 1   
    17     7     8 ar  
    18     7    41 1   
    19     8     9 ar  
    20     8    42 1   
    21     9    43 1   
    22    10    44 1   
    23    11    45 1   
    24    12    13 1   
    25    12    28 1   
    26    12    83 2   
    27    13    14 1   
    28    13    18 1   
    29    13    46 1   
    30    14    47 1   
    31    14    48 1   
    32    15    16 1   
    33    15    17 1   
    34    15    18 1   
    35    15    49 1   
    36    16    17 1   
    37    16    50 1   
    38    16    51 1   
    39    17    52 1   
    40    17    53 1   
    41    18    54 1   
    42    18    55 1   
    43    19    20 1   
    44    19    29 1   
    45    19    56 1   
    46    19    84 1   
    47    20    21 1   
    48    20    28 1   
    49    20    57 1   
    50    21    22 1   
    51    21    58 1   
    52    21    59 1   
    53    22    23 1   
    54    22    27 1   
    55    22    60 1   
    56    23    24 1   
    57    23    61 1   
    58    23    62 1   
    59    24    25 1   
    60    24    63 1   
    61    24    64 1   
    62    25    26 1   
    63    25    65 1   
    64    25    66 1   
    65    26    27 1   
    66    26    67 1   
    67    26    68 1   
    68    27    69 1   
    69    27    70 1   
    70    28    71 1   
    71    29    30 1   
    72    29    34 1   
    73    29    72 1   
    74    30    31 1   
    75    30    73 1   
    76    30    74 1   
    77    31    32 1   
    78    31    33 1   
    79    31    75 1   
    80    32    76 1   
    81    32    77 1   
    82    32    78 1   
    83    33    79 1   
    84    33    80 1   
    85    33    81 1   
    86    34    82 1   
    87    84    85 1   
@<TRIPOS>SUBSTRUCTURE
     1 03D         1 TEMP              0 ****  ****    0 ROOT
