@<TRIPOS>MOLECULE
03D
   85    87     1     0     0
SMALL
bcc


@<TRIPOS>ATOM
      1 C1           2.5980     0.3170    -1.3310 c3         1 03D       0.114100
      2 C2           3.6030     1.1480    -0.5190 c3         1 03D       0.116100
      3 C3           4.4630     2.0420    -1.4170 c3         1 03D      -0.062100
      4 C4           5.3620     2.9340    -0.6110 ca         1 03D      -0.076300
      5 C5           6.6790     2.5730    -0.3380 ca         1 03D      -0.121000
      6 C6           7.4930     3.3810     0.4460 ca         1 03D      -0.125500
      7 C7           6.9980     4.5660     0.9750 ca         1 03D      -0.126000
      8 C8           5.6870     4.9390     0.7080 ca         1 03D      -0.125500
      9 C9           4.8790     4.1280    -0.0790 ca         1 03D      -0.121000
     10 O10          3.2540    -0.5400    -2.2430 oh         1 03D      -0.597800
     11 O11          4.3940     0.3400     0.3250 oh         1 03D      -0.586800
     12 C12         -0.7110    -1.1290    -0.1580 c          1 03D       0.663100
     13 C13          0.4540    -1.1110    -1.1320 c3         1 03D      -0.131700
     14 C14          1.6240    -0.4120    -0.4130 c3         1 03D      -0.103400
     15 C15         -0.3650    -3.1520    -2.3820 cx         1 03D      -0.132700
     16 C16         -1.4740    -3.8890    -1.6930 cx         1 03D      -0.131900
     17 C17         -0.4660    -4.6400    -2.5110 cx         1 03D      -0.131900
     18 C18          0.7690    -2.5320    -1.6050 c3         1 03D      -0.037400
     19 C20         -4.1380    -0.7370     0.0060 c3         1 03D       0.106100
     20 C21         -2.8480     0.0260     0.3620 c3         1 03D       0.077700
     21 C22         -3.0440     1.5400     0.2850 c3         1 03D      -0.090400
     22 C23         -1.7900     2.3720     0.5520 c6         1 03D      -0.057700
     23 C24         -2.1140     3.8640     0.4530 c6         1 03D      -0.075900
     24 C25         -0.8860     4.7350     0.6950 c6         1 03D      -0.072400
     25 C26         -0.2380     4.4170     2.0380 c6         1 03D      -0.076400
     26 C27          0.0880     2.9320     2.1520 c6         1 03D      -0.072400
     27 C28         -1.1410     2.0630     1.9010 c6         1 03D      -0.075900
     28 N29         -1.7640    -0.3680    -0.5200 ns         1 03D      -0.578900
     29 C31         -4.1720    -2.1480     0.6220 c3         1 03D       0.113100
     30 C32         -5.3900    -2.9370     0.1510 c3         1 03D      -0.104400
     31 C33         -5.5770    -4.3050     0.8080 c3         1 03D      -0.055700
     32 C34         -6.8600    -4.9490     0.2880 c3         1 03D      -0.089600
     33 C35         -4.3860    -5.2270     0.5720 c3         1 03D      -0.089600
     34 O36         -4.1190    -2.0500     2.0310 oh         1 03D      -0.580800
     35 H1           2.0260     1.0200    -1.9470 h1         1 03D       0.069700
     36 H2           3.0250     1.7990     0.1480 h1         1 03D       0.077700
     37 H3           5.0510     1.4200    -2.0970 hc         1 03D       0.058200
     38 H3A          3.7970     2.6460    -2.0400 hc         1 03D       0.058200
     39 H5           7.0800     1.6540    -0.7500 ha         1 03D       0.124500
     40 H6           8.5150     3.0840     0.6450 ha         1 03D       0.130000
     41 H7           7.6300     5.1950     1.5870 ha         1 03D       0.130000
     42 H8           5.2930     5.8630     1.1110 ha         1 03D       0.130000
     43 H9           3.8580     4.4310    -0.2850 ha         1 03D       0.124500
     44 HO10         3.6270    -1.2830    -1.7570 ho         1 03D       0.404000
     45 HO11         5.0660    -0.1010    -0.2060 ho         1 03D       0.400000
     46 H13          0.1790    -0.5160    -2.0100 hc         1 03D       0.052700
     47 H14          2.1560    -1.1320     0.2170 hc         1 03D       0.066700
     48 H14A         1.2190     0.3400     0.2730 hc         1 03D       0.066700
     49 H15         -0.6600    -2.5880    -3.2630 hc         1 03D       0.070700
     50 H16         -1.4280    -3.9920    -0.6160 hc         1 03D       0.073450
     51 H16A        -2.4790    -3.7920    -2.0870 hc         1 03D       0.073450
     52 H17         -0.7800    -5.0560    -3.4600 hc         1 03D       0.073450
     53 H17A         0.2640    -5.2420    -1.9830 hc         1 03D       0.073450
     54 H18          1.6550    -2.5040    -2.2400 hc         1 03D       0.057700
     55 H18A         1.0240    -3.1550    -0.7420 hc         1 03D       0.057700
     56 H20         -4.9890    -0.1820     0.4200 h1         1 03D       0.067700
     57 H21         -2.5610    -0.2420     1.3790 h1         1 03D       0.099700
     58 H22         -3.4450     1.8030    -0.7010 hc         1 03D       0.050700
     59 H22A        -3.8180     1.8110     1.0110 hc         1 03D       0.050700
     60 H23         -1.0490     2.1540    -0.2300 hc         1 03D       0.036700
     61 H24         -2.5420     4.0840    -0.5290 hc         1 03D       0.042950
     62 H24A        -2.8860     4.1120     1.1920 hc         1 03D       0.042950
     63 H25         -0.1590     4.5660    -0.1070 hc         1 03D       0.037700
     64 H25A        -1.1600     5.7920     0.6460 hc         1 03D       0.037700
     65 H26          0.6640     5.0160     2.1780 hc         1 03D       0.039200
     66 H26A        -0.9260     4.6970     2.8440 hc         1 03D       0.039200
     67 H27          0.8630     2.6750     1.4190 hc         1 03D       0.037700
     68 H27A         0.5100     2.7080     3.1340 hc         1 03D       0.037700
     69 H28         -1.8760     2.2290     2.6980 hc         1 03D       0.042950
     70 H28A        -0.8560     1.0090     1.9610 hc         1 03D       0.042950
     71 HN29        -1.6650     0.1620    -1.3720 hn         1 03D       0.306500
     72 H31         -3.2590    -2.6800     0.3350 h1         1 03D       0.088700
     73 H32         -6.2900    -2.3330     0.3240 hc         1 03D       0.046700
     74 H32A        -5.3260    -3.0770    -0.9320 hc         1 03D       0.046700
     75 H33         -5.6910    -4.1620     1.8870 hc         1 03D       0.050700
     76 H34         -6.7930    -5.1480    -0.7840 hc         1 03D       0.033533
     77 H34A        -7.0610    -5.8980     0.7880 hc         1 03D       0.033533
     78 H34B        -7.7240    -4.3010     0.4500 hc         1 03D       0.033533
     79 H35         -4.5690    -6.2180     0.9920 hc         1 03D       0.033533
     80 H35A        -4.1950    -5.3540    -0.4970 hc         1 03D       0.033533
     81 H35B        -3.4700    -4.8480     1.0270 hc         1 03D       0.033533
     82 HO36        -4.9580    -1.6880     2.3380 ho         1 03D       0.393000
     83 O19         -0.6590    -1.7500     0.8930 o          1 03D      -0.590100
     84 O30         -4.3400    -0.7570    -1.3880 oh         1 03D      -0.592800
     85 HO30        -3.5820    -1.1990    -1.7880 ho         1 03D       0.407000
@<TRIPOS>BOND
     1     1     2 1   
     2     1    10 1   
     3     1    14 1   
     4     1    35 1   
     5     2     3 1   
     6     2    11 1   
     7     2    36 1   
     8     3     4 1   
     9     3    37 1   
    10     3    38 1   
    11     4     5 ar  
    12     4     9 ar  
    13     5     6 ar  
    14     5    39 1   
    15     6     7 ar  
    16     6    40 1   
    17     7     8 ar  
    18     7    41 1   
    19     8     9 ar  
    20     8    42 1   
    21     9    43 1   
    22    10    44 1   
    23    11    45 1   
    24    12    13 1   
    25    12    28 1   
    26    12    83 2   
    27    13    14 1   
    28    13    18 1   
    29    13    46 1   
    30    14    47 1   
    31    14    48 1   
    32    15    16 1   
    33    15    17 1   
    34    15    18 1   
    35    15    49 1   
    36    16    17 1   
    37    16    50 1   
    38    16    51 1   
    39    17    52 1   
    40    17    53 1   
    41    18    54 1   
    42    18    55 1   
    43    19    20 1   
    44    19    29 1   
    45    19    56 1   
    46    19    84 1   
    47    20    21 1   
    48    20    28 1   
    49    20    57 1   
    50    21    22 1   
    51    21    58 1   
    52    21    59 1   
    53    22    23 1   
    54    22    27 1   
    55    22    60 1   
    56    23    24 1   
    57    23    61 1   
    58    23    62 1   
    59    24    25 1   
    60    24    63 1   
    61    24    64 1   
    62    25    26 1   
    63    25    65 1   
    64    25    66 1   
    65    26    27 1   
    66    26    67 1   
    67    26    68 1   
    68    27    69 1   
    69    27    70 1   
    70    28    71 1   
    71    29    30 1   
    72    29    34 1   
    73    29    72 1   
    74    30    31 1   
    75    30    73 1   
    76    30    74 1   
    77    31    32 1   
    78    31    33 1   
    79    31    75 1   
    80    32    76 1   
    81    32    77 1   
    82    32    78 1   
    83    33    79 1   
    84    33    80 1   
    85    33    81 1   
    86    34    82 1   
    87    84    85 1   
@<TRIPOS>SUBSTRUCTURE
     1 03D         1 TEMP              0 ****  ****    0 ROOT
