@<TRIPOS>MOLECULE
03E
   25    25     1     0     0
SMALL
bcc


@<TRIPOS>ATOM
      1 O           -5.9850     7.1410    -4.9840 o          1 03E      -0.837300
      2 CAO         -8.2130     3.4480    -3.2270 c3         1 03E      -0.060900
      3 CAP         -7.2690     3.3040    -2.0310 c3         1 03E      -0.060900
      4 CAQ         -9.0940     4.6980    -3.2250 c3         1 03E      -0.065900
      5 CAR         -6.6700     4.6050    -1.4970 c3         1 03E      -0.065900
      6 CAS         -8.4160     5.9120    -3.8540 c3         1 03E      -0.044900
      7 CAT         -6.2170     5.6110    -2.5570 c3         1 03E      -0.044900
      8 N           -7.9120     7.2280    -1.8890 n8         1 03E      -0.888800
      9 C           -6.6100     7.6210    -4.0140 c          1 03E       0.904600
     10 CA          -7.2960     6.5940    -3.0520 c3         1 03E       0.032200
     11 HAO         -7.6320     3.4450    -4.1550 hc         1 03E       0.016200
     12 HAOA        -8.8380     2.5530    -3.2760 hc         1 03E       0.016200
     13 HAP         -7.8010     2.8150    -1.2100 hc         1 03E       0.016200
     14 HAQ         -9.9950     4.4850    -3.8080 hc         1 03E       0.025200
     15 HAQA        -9.4410     4.9290    -2.2140 hc         1 03E       0.025200
     16 HAR         -7.3850     5.0930    -0.8320 hc         1 03E       0.025200
     17 HAS         -8.0180     5.6130    -4.8270 hc         1 03E       0.038200
     18 HASA        -9.1770     6.6750    -4.0620 hc         1 03E       0.038200
     19 HAT         -5.4040     6.2120    -2.1310 hc         1 03E       0.038200
     20 HATA        -5.7810     5.0900    -3.4110 hc         1 03E       0.038200
     21 HN          -7.1790     7.6200    -1.3060 hn         1 03E       0.326300
     22 OXT         -6.7490     8.8340    -3.7570 o          1 03E      -0.837300
     23 H12         -6.4630     2.6200    -2.3110 hc         1 03E       0.016200
     24 H13         -5.8150     4.3430    -0.8680 hc         1 03E       0.025200
     25 H2          -8.4240     8.0390    -2.2180 hn         1 03E       0.326300
@<TRIPOS>BOND
     1     1     9 1   
     2     2     3 1   
     3     2     4 1   
     4     2    11 1   
     5     2    12 1   
     6     3     5 1   
     7     3    13 1   
     8     3    23 1   
     9     4     6 1   
    10     4    14 1   
    11     4    15 1   
    12     5     7 1   
    13     5    16 1   
    14     5    24 1   
    15     6    10 1   
    16     6    17 1   
    17     6    18 1   
    18     7    10 1   
    19     7    19 1   
    20     7    20 1   
    21     8    10 1   
    22     8    21 1   
    23     8    25 1   
    24     9    10 1   
    25     9    22 1   
@<TRIPOS>SUBSTRUCTURE
     1 03E         1 TEMP              0 ****  ****    0 ROOT
