@<TRIPOS>MOLECULE
03F
  130   130     1     0     0
SMALL
No Charge or Current Charge


@<TRIPOS>ATOM
      1 C1          -2.9840     3.7500     1.9210 c3         1 03F       0.157600
      2 C2          -2.5290     2.2690     1.8770 c3         1 03F       0.076700
      3 N2          -1.2440     2.1470     1.1590 ns         1 03F      -0.510900
      4 C3          -3.6130     1.3190     1.2860 c3         1 03F       0.200500
      5 O3          -4.7750     1.3100     2.1170 oh         1 03F      -0.639000
      6 C4          -3.1470    -0.1160     1.1740 c2         1 03F      -0.270200
      7 C5          -3.3240    -0.9120     0.1060 c2         1 03F      -0.197200
      8 C6          -2.8340    -2.3410    -0.0030 c3         1 03F      -0.045200
      9 C7          -3.9980    -3.3490    -0.1040 c3         1 03F      -0.072400
     10 C8          -3.5240    -4.8150    -0.2130 c3         1 03F      -0.075400
     11 C9          -4.6910    -5.8220    -0.3120 c3         1 03F      -0.074400
     12 C10         -4.2170    -7.2880    -0.4200 c3         1 03F      -0.074400
     13 C11         -5.3840    -8.2940    -0.5180 c3         1 03F      -0.074400
     14 C12         -4.9090    -9.7600    -0.6250 c3         1 03F      -0.074400
     15 C13         -6.0760   -10.7680    -0.7220 c3         1 03F      -0.074400
     16 C14         -5.6020   -12.2330    -0.8280 c3         1 03F      -0.074400
     17 C15         -6.7690   -13.2410    -0.9250 c3         1 03F      -0.074400
     18 C16         -6.2950   -14.7070    -1.0300 c3         1 03F      -0.075400
     19 C17         -7.4610   -15.7140    -1.1260 c3         1 03F      -0.074400
     20 C18         -6.9890   -17.1770    -1.2310 c3         1 03F      -0.088100
     21 C1A         -3.5280     5.6140     0.4390 c6         1 03F       0.369300
     22 O1A         -3.1220     4.2410     0.5700 os         1 03F      -0.461000
     23 C2A         -3.5410     6.0350    -1.0680 c6         1 03F       0.112300
     24 O2A         -2.2530     5.8630    -1.7090 oh         1 03F      -0.723000
     25 C3A         -4.0070     7.5140    -1.1640 c6         1 03F       0.138300
     26 O3A         -4.0620     7.9310    -2.5390 oh         1 03F      -0.665000
     27 C4A         -5.3950     7.6870    -0.4760 c6         1 03F       0.142300
     28 O4A         -5.7950     9.0700    -0.5340 oh         1 03F      -0.718000
     29 C5M         -5.3190     7.1510     0.9910 c6         1 03F       0.181300
     30 C6A         -6.7050     7.2010     1.7170 c3         1 03F       0.171600
     31 O6A         -4.8490     5.7750     0.9890 os         1 03F      -0.465000
     32 CAA         -0.1520     1.4350     1.6000 c          1 03F       0.601100
     33 OAA         -0.1420     0.8370     2.6660 o          1 03F      -0.601100
     34 CAB          1.0400     1.4220     0.6380 c3         1 03F      -0.157400
     35 CAC          2.1910     2.3210     1.1480 c3         1 03F      -0.064400
     36 CAD          3.4090     2.3390     0.1990 c3         1 03F      -0.076400
     37 CAE          4.5580     3.2360     0.7080 c3         1 03F      -0.074400
     38 CAF          5.7760     3.2550    -0.2410 c3         1 03F      -0.075400
     39 CAG          6.9260     4.1500     0.2690 c3         1 03F      -0.072400
     40 CAH          8.1450     4.1680    -0.6760 c3         1 03F      -0.043200
     41 CAI          9.2650     5.0450    -0.1470 c2         1 03F      -0.216200
     42 CAJ         10.3420     4.6420     0.5500 c2         1 03F      -0.215200
     43 CAK         10.6580     3.2280     1.0000 c3         1 03F      -0.043200
     44 CAL         11.6150     2.5100     0.0270 c3         1 03F      -0.073400
     45 CAM         11.9430     1.0620     0.4560 c3         1 03F      -0.074400
     46 CAN         12.8990     0.3450    -0.5220 c3         1 03F      -0.074400
     47 CAO         13.2260    -1.1030    -0.0950 c3         1 03F      -0.074400
     48 CAP         14.1820    -1.8210    -1.0720 c3         1 03F      -0.075400
     49 CAQ         14.5070    -3.2690    -0.6460 c3         1 03F      -0.074400
     50 CAR         15.4610    -3.9850    -1.6210 c3         1 03F      -0.088100
     51 HO4A        -5.5250     9.3730    -1.4350 ho         1 03F       0.525000
     52 H2          -2.3680     1.9620     2.9190 h1         1 03F       0.089700
     53 HO3A        -3.2850     7.4940    -2.9610 ho         1 03F       0.465000
     54 HO2A        -1.9430     4.9590    -1.4610 ho         1 03F       0.517000
     55 H3          -3.8710     1.6860     0.2820 h1         1 03F       0.084700
     56 H4          -2.6220    -0.4830     2.0570 ha         1 03F       0.178000
     57 H10         -3.5740    -7.3940    -1.3030 hc         1 03F       0.037200
     58 H10A        -3.6020    -7.5330     0.4550 hc         1 03F       0.037200
     59 H1          -3.9340     3.8260     2.4680 h1         1 03F       0.055200
     60 H11         -6.0270    -8.1880     0.3640 hc         1 03F       0.037700
     61 H1A         -2.2350     4.3380     2.4680 h1         1 03F       0.055200
     62 H11A        -5.9980    -8.0500    -1.3940 hc         1 03F       0.037700
     63 H1AA        -2.8200     6.2520     0.9900 h2         1 03F       0.033700
     64 H12         -4.2670    -9.8680    -1.5090 hc         1 03F       0.037200
     65 H12A        -4.2940   -10.0050     0.2500 hc         1 03F       0.037200
     66 H1AR        15.6620    -5.0070    -1.2770 hc         1 03F       0.031367
     67 H2A         -4.2910     5.4070    -1.5730 h1         1 03F       0.069700
     68 H13         -6.7190   -10.6600     0.1610 hc         1 03F       0.037200
     69 H13A        -6.6910   -10.5230    -1.5980 hc         1 03F       0.037200
     70 H3A         -3.2750     8.1330    -0.6210 h1         1 03F       0.053700
     71 H14         -4.9600   -12.3410    -1.7120 hc         1 03F       0.036700
     72 H14A        -4.9870   -12.4770     0.0470 hc         1 03F       0.036700
     73 H4A         -6.1240     7.0690    -1.0220 h1         1 03F       0.056700
     74 H15         -7.4110   -13.1330    -0.0420 hc         1 03F       0.036700
     75 H5          -3.8430    -0.5450    -0.7820 ha         1 03F       0.174000
     76 H15A        -7.3840   -12.9970    -1.8000 hc         1 03F       0.036700
     77 HO5A        -7.5950     6.6870     3.4000 ho         1 03F       0.504000
     78 H5M         -4.6110     7.7650     1.5670 h1         1 03F       0.059700
     79 H6          -2.1890    -2.4430    -0.8850 hc         1 03F       0.046200
     80 H16         -5.6520   -14.8150    -1.9130 hc         1 03F       0.036700
     81 H6A         -2.2150    -2.5990     0.8660 hc         1 03F       0.046200
     82 H16A        -5.6800   -14.9500    -0.1550 hc         1 03F       0.036700
     83 H7          -4.6410    -3.2410     0.7780 hc         1 03F       0.041200
     84 H17         -8.1050   -15.6100    -0.2440 hc         1 03F       0.036700
     85 H7A         -4.6120    -3.1020    -0.9800 hc         1 03F       0.041200
     86 H17A        -8.0780   -15.4750    -2.0020 hc         1 03F       0.036700
     87 H8          -2.8800    -4.9210    -1.0960 hc         1 03F       0.037700
     88 H18         -7.8500   -17.8530    -1.2970 hc         1 03F       0.031367
     89 H8A         -2.9100    -5.0610     0.6630 hc         1 03F       0.037700
     90 H18A        -6.3700   -17.3210    -2.1250 hc         1 03F       0.031367
     91 H18B        -6.3980   -17.4580    -0.3510 hc         1 03F       0.031367
     92 H9          -5.3340    -5.7150     0.5700 hc         1 03F       0.038700
     93 H9A         -5.3050    -5.5760    -1.1880 hc         1 03F       0.038700
     94 H6AA        -7.4270     6.6370     1.1110 h1         1 03F       0.037200
     95 H6AB        -7.0450     8.2450     1.7370 h1         1 03F       0.037200
     96 HAB          1.4130     0.3940     0.5550 hc         1 03F       0.055200
     97 HABA         0.7290     1.7840    -0.3500 hc         1 03F       0.055200
     98 HAC          1.8170     3.3450     1.2760 hc         1 03F       0.055700
     99 HACA         2.5100     1.9720     2.1390 hc         1 03F       0.055700
    100 HAD          3.7810     1.3150     0.0720 hc         1 03F       0.035200
    101 HADA         3.0900     2.6900    -0.7900 hc         1 03F       0.035200
    102 HAE          4.1860     4.2610     0.8370 hc         1 03F       0.040700
    103 HAEA         4.8780     2.8860     1.6980 hc         1 03F       0.040700
    104 HAF          6.1480     2.2300    -0.3690 hc         1 03F       0.036700
    105 HAFA         5.4570     3.6060    -1.2300 hc         1 03F       0.036700
    106 HAG          6.5580     5.1760     0.3980 hc         1 03F       0.040200
    107 HAGA         7.2460     3.7990     1.2580 hc         1 03F       0.040200
    108 HAH          8.4960     3.1400    -0.8260 hc         1 03F       0.044200
    109 HAHA         7.8330     4.5270    -1.6650 hc         1 03F       0.044200
    110 HAI          9.1510     6.1010    -0.3990 ha         1 03F       0.165000
    111 HAJ         11.0860     5.3780     0.8640 ha         1 03F       0.165000
    112 HAK         11.1060     3.2510     2.0010 hc         1 03F       0.044200
    113 HAKA         9.7380     2.6380     1.0960 hc         1 03F       0.044200
    114 HAL         11.1650     2.4970    -0.9730 hc         1 03F       0.039700
    115 HALA        12.5470     3.0850    -0.0490 hc         1 03F       0.039700
    116 HAM         12.3940     1.0760     1.4560 hc         1 03F       0.037200
    117 HAMA        11.0100     0.4900     0.5320 hc         1 03F       0.037200
    118 HAN         12.4490     0.3320    -1.5220 hc         1 03F       0.037700
    119 HN2         -1.1580     2.6060     0.2610 hn         1 03F       0.312500
    120 HANA        13.8330     0.9170    -0.5980 hc         1 03F       0.037700
    121 HAO         13.6760    -1.0910     0.9060 hc         1 03F       0.036700
    122 HAOA        12.2920    -1.6750    -0.0190 hc         1 03F       0.036700
    123 HO3         -5.3240     0.5600     1.8050 ho         1 03F       0.441000
    124 HAP         13.7320    -1.8330    -2.0730 hc         1 03F       0.037200
    125 HAPA        15.1150    -1.2490    -1.1480 hc         1 03F       0.037200
    126 HAQ         14.9600    -3.2610     0.3540 hc         1 03F       0.036700
    127 HAQA        13.5760    -3.8440    -0.5710 hc         1 03F       0.036700
    128 HAR         15.0210    -4.0410    -2.6240 hc         1 03F       0.031367
    129 HARA        16.4170    -3.4530    -1.6910 hc         1 03F       0.031367
    130 O5A         -6.6690     6.6740     3.0610 oh         1 03F      -0.712000
@<TRIPOS>BOND
     1     1     2 1   
     2     1    22 1   
     3     1    59 1   
     4     1    61 1   
     5     2     3 1   
     6     2     4 1   
     7     2    52 1   
     8     3    32 1   
     9     3   119 1   
    10     4     5 1   
    11     4     6 1   
    12     4    55 1   
    13     5   123 1   
    14     6     7 2   
    15     6    56 1   
    16     7     8 1   
    17     7    75 1   
    18     8     9 1   
    19     8    79 1   
    20     8    81 1   
    21     9    10 1   
    22     9    83 1   
    23     9    85 1   
    24    10    11 1   
    25    10    87 1   
    26    10    89 1   
    27    11    12 1   
    28    11    92 1   
    29    11    93 1   
    30    12    13 1   
    31    12    57 1   
    32    12    58 1   
    33    13    14 1   
    34    13    60 1   
    35    13    62 1   
    36    14    15 1   
    37    14    64 1   
    38    14    65 1   
    39    15    16 1   
    40    15    68 1   
    41    15    69 1   
    42    16    17 1   
    43    16    71 1   
    44    16    72 1   
    45    17    18 1   
    46    17    74 1   
    47    17    76 1   
    48    18    19 1   
    49    18    80 1   
    50    18    82 1   
    51    19    20 1   
    52    19    84 1   
    53    19    86 1   
    54    20    88 1   
    55    20    90 1   
    56    20    91 1   
    57    21    22 1   
    58    21    23 1   
    59    21    31 1   
    60    21    63 1   
    61    23    24 1   
    62    23    25 1   
    63    23    67 1   
    64    24    54 1   
    65    25    26 1   
    66    25    27 1   
    67    25    70 1   
    68    26    53 1   
    69    27    28 1   
    70    27    29 1   
    71    27    73 1   
    72    28    51 1   
    73    29    30 1   
    74    29    31 1   
    75    29    78 1   
    76    30    94 1   
    77    30    95 1   
    78    30   130 1   
    79    32    33 2   
    80    32    34 1   
    81    34    35 1   
    82    34    96 1   
    83    34    97 1   
    84    35    36 1   
    85    35    98 1   
    86    35    99 1   
    87    36    37 1   
    88    36   100 1   
    89    36   101 1   
    90    37    38 1   
    91    37   102 1   
    92    37   103 1   
    93    38    39 1   
    94    38   104 1   
    95    38   105 1   
    96    39    40 1   
    97    39   106 1   
    98    39   107 1   
    99    40    41 1   
   100    40   108 1   
   101    40   109 1   
   102    41    42 2   
   103    41   110 1   
   104    42    43 1   
   105    42   111 1   
   106    43    44 1   
   107    43   112 1   
   108    43   113 1   
   109    44    45 1   
   110    44   114 1   
   111    44   115 1   
   112    45    46 1   
   113    45   116 1   
   114    45   117 1   
   115    46    47 1   
   116    46   118 1   
   117    46   120 1   
   118    47    48 1   
   119    47   121 1   
   120    47   122 1   
   121    48    49 1   
   122    48   124 1   
   123    48   125 1   
   124    49    50 1   
   125    49   126 1   
   126    49   127 1   
   127    50    66 1   
   128    50   128 1   
   129    50   129 1   
   130    77   130 1   
@<TRIPOS>SUBSTRUCTURE
     1 03F         1 TEMP              0 ****  ****    0 ROOT
