@<TRIPOS>MOLECULE
03F
  130   130     1     0     0
SMALL
abcg2


@<TRIPOS>ATOM
      1 C1          -4.0590     3.6360     0.7360 c3         1 03F       0.157600
      2 C2          -3.5340     2.2630     0.3420 c3         1 03F       0.076700
      3 N2          -2.1190     2.3270     0.0560 ns         1 03F      -0.510900
      4 C3          -4.2750     1.6590    -0.8730 c3         1 03F       0.200500
      5 O3          -5.6660     1.7500    -0.7130 oh         1 03F      -0.639000
      6 C4          -3.8010     0.2590    -1.1520 c2         1 03F      -0.270200
      7 C5          -4.5870    -0.7760    -1.4300 c2         1 03F      -0.197200
      8 C6          -4.0990    -2.1570    -1.7340 c3         1 03F      -0.045200
      9 C7          -4.7570    -3.2290    -0.8670 c3         1 03F      -0.072400
     10 C8          -4.3210    -4.6370    -1.2510 c3         1 03F      -0.075400
     11 C9          -5.0110    -5.7300    -0.4460 c3         1 03F      -0.074400
     12 C10         -4.5760    -7.1330    -0.8540 c3         1 03F      -0.074400
     13 C11         -5.2830    -8.2390    -0.0810 c3         1 03F      -0.074400
     14 C12         -4.8440    -9.6360    -0.5020 c3         1 03F      -0.074400
     15 C13         -5.5600   -10.7500     0.2500 c3         1 03F      -0.074400
     16 C14         -5.1180   -12.1430    -0.1790 c3         1 03F      -0.074400
     17 C15         -5.8370   -13.2620     0.5640 c3         1 03F      -0.074400
     18 C16         -5.3920   -14.6540     0.1310 c3         1 03F      -0.075400
     19 C17         -6.1120   -15.7760     0.8680 c3         1 03F      -0.074400
     20 C18         -5.6590   -17.1610     0.4250 c3         1 03F      -0.088100
     21 C1A         -3.7370     5.8390    -0.0840 c6         1 03F       0.369300
     22 O1A         -3.8900     4.5030    -0.3700 os         1 03F      -0.461000
     23 C2A         -3.2180     6.5440    -1.3350 c6         1 03F       0.112300
     24 O2A         -1.9360     6.0920    -1.6940 oh         1 03F      -0.723000
     25 C3A         -3.1230     8.0360    -1.0500 c6         1 03F       0.138300
     26 O3A         -2.7870     8.7770    -2.1980 oh         1 03F      -0.665000
     27 C4A         -4.4590     8.5660    -0.5400 c6         1 03F       0.142300
     28 O4A         -4.3520     9.9040    -0.1230 oh         1 03F      -0.718000
     29 C5M         -4.9270     7.7290     0.6530 c6         1 03F       0.181300
     30 C6A         -6.3040     8.1410     1.1250 c3         1 03F       0.171600
     31 O6A         -4.9860     6.3680     0.2770 os         1 03F      -0.465000
     32 CAA         -1.1460     1.9910     0.9270 c          1 03F       0.601100
     33 OAA         -1.3770     1.5670     2.0490 o          1 03F      -0.601100
     34 CAB          0.2570     2.1540     0.3810 c3         1 03F      -0.157400
     35 CAC          1.3430     2.1510     1.4440 c3         1 03F      -0.064400
     36 CAD          2.7310     2.3060     0.8350 c3         1 03F      -0.076400
     37 CAE          3.8430     2.2940     1.8750 c3         1 03F      -0.074400
     38 CAF          5.2300     2.4820     1.2730 c3         1 03F      -0.075400
     39 CAG          6.3410     2.4400     2.3150 c3         1 03F      -0.072400
     40 CAH          7.7300     2.6810     1.7210 c3         1 03F      -0.043200
     41 CAI          8.8000     2.6450     2.7670 c2         1 03F      -0.216200
     42 CAJ          9.8210     1.7940     2.8550 c2         1 03F      -0.215200
     43 CAK         10.1870     0.7010     1.9000 c3         1 03F      -0.043200
     44 CAL         11.5430     0.9550     1.2390 c3         1 03F      -0.073400
     45 CAM         11.9480    -0.1410     0.2620 c3         1 03F      -0.074400
     46 CAN         13.3090     0.1060    -0.3760 c3         1 03F      -0.074400
     47 CAO         13.7040    -0.9560    -1.3940 c3         1 03F      -0.074400
     48 CAP         15.0690    -0.7040    -2.0230 c3         1 03F      -0.075400
     49 CAQ         15.4580    -1.7450    -3.0650 c3         1 03F      -0.074400
     50 CAR         16.8230    -1.4800    -3.6830 c3         1 03F      -0.088100
     51 HO4A        -4.0380    10.4260    -0.8690 ho         1 03F       0.525000
     52 H2          -3.6720     1.5990     1.1990 h1         1 03F       0.089700
     53 HO3A        -1.8750     8.5800    -2.4350 ho         1 03F       0.465000
     54 HO2A        -2.0190     5.2240    -2.0990 ho         1 03F       0.517000
     55 H3          -4.0410     2.2780    -1.7480 h1         1 03F       0.084700
     56 H4          -2.7240     0.1160    -1.1410 ha         1 03F       0.178000
     57 H10         -4.7590    -7.2670    -1.9260 hc         1 03F       0.037200
     58 H10A        -3.4930    -7.2290    -0.7190 hc         1 03F       0.037200
     59 H1          -5.1070     3.5810     1.0380 h1         1 03F       0.055200
     60 H11         -5.1030    -8.1100     0.9920 hc         1 03F       0.037700
     61 H1A         -3.4840     3.9930     1.5990 h1         1 03F       0.055200
     62 H11A        -6.3660    -8.1420    -0.2200 hc         1 03F       0.037700
     63 H1AA        -3.0190     5.9860     0.7470 h2         1 03F       0.033700
     64 H12         -5.0150    -9.7580    -1.5780 hc         1 03F       0.037200
     65 H12A        -3.7630    -9.7350    -0.3560 hc         1 03F       0.037200
     66 H1AR        17.0770    -2.2270    -4.4360 hc         1 03F       0.031367
     67 H2A         -3.9440     6.3800    -2.1460 h1         1 03F       0.069700
     68 H13         -5.3910   -10.6310     1.3260 hc         1 03F       0.037200
     69 H13A        -6.6410   -10.6510     0.1020 hc         1 03F       0.037200
     70 H3A         -2.3740     8.1860    -0.2550 h1         1 03F       0.053700
     71 H14         -5.2830   -12.2590    -1.2560 hc         1 03F       0.036700
     72 H14A        -4.0370   -12.2430    -0.0270 hc         1 03F       0.036700
     73 H4A         -5.2030     8.4600    -1.3460 h1         1 03F       0.056700
     74 H15         -5.6720   -13.1490     1.6420 hc         1 03F       0.036700
     75 H5          -5.6660    -0.6430    -1.4630 ha         1 03F       0.174000
     76 H15A        -6.9170   -13.1630     0.4120 hc         1 03F       0.036700
     77 HO5A        -7.4850     7.7060     2.5920 ho         1 03F       0.504000
     78 H5M         -4.2070     7.8620     1.4770 h1         1 03F       0.059700
     79 H6          -4.3170    -2.3820    -2.7850 hc         1 03F       0.046200
     80 H16         -5.5540   -14.7660    -0.9470 hc         1 03F       0.036700
     81 H6A         -3.0110    -2.2060    -1.6270 hc         1 03F       0.046200
     82 H16A        -4.3110   -14.7530     0.2850 hc         1 03F       0.036700
     83 H7          -4.5250    -3.0440     0.1860 hc         1 03F       0.041200
     84 H17         -5.9500   -15.6640     1.9450 hc         1 03F       0.036700
     85 H7A         -5.8460    -3.1490    -0.9600 hc         1 03F       0.041200
     86 H17A        -7.1910   -15.6760     0.7130 hc         1 03F       0.036700
     87 H8          -4.5210    -4.7940    -2.3170 hc         1 03F       0.037700
     88 H18         -6.1870   -17.9480     0.9640 hc         1 03F       0.031367
     89 H8A         -3.2350    -4.7270    -1.1310 hc         1 03F       0.037700
     90 H18A        -5.8390   -17.3110    -0.6410 hc         1 03F       0.031367
     91 H18B        -4.5910   -17.3000     0.6000 hc         1 03F       0.031367
     92 H9          -4.8130    -5.5840     0.6210 hc         1 03F       0.038700
     93 H9A         -6.0960    -5.6380    -0.5690 hc         1 03F       0.038700
     94 H6AA        -7.0220     7.9820     0.3080 h1         1 03F       0.037200
     95 H6AB        -6.2900     9.2150     1.3370 h1         1 03F       0.037200
     96 HAB          0.4300     1.3400    -0.3320 hc         1 03F       0.055200
     97 HABA         0.3110     3.0750    -0.2080 hc         1 03F       0.055200
     98 HAC          1.1680     2.9630     2.1560 hc         1 03F       0.055700
     99 HACA         1.2980     1.2230     2.0190 hc         1 03F       0.055700
    100 HAD          2.9020     1.5020     0.1110 hc         1 03F       0.035200
    101 HADA         2.7770     3.2400     0.2650 hc         1 03F       0.035200
    102 HAE          3.6610     3.0840     2.6120 hc         1 03F       0.040700
    103 HAEA         3.8110     1.3500     2.4300 hc         1 03F       0.040700
    104 HAF          5.4080     1.7060     0.5200 hc         1 03F       0.036700
    105 HAFA         5.2660     3.4380     0.7390 hc         1 03F       0.036700
    106 HAG          6.1440     3.1910     3.0870 hc         1 03F       0.040200
    107 HAGA         6.3300     1.4700     2.8220 hc         1 03F       0.040200
    108 HAH          7.9240     1.9470     0.9360 hc         1 03F       0.044200
    109 HAHA         7.7350     3.6620     1.2320 hc         1 03F       0.044200
    110 HAI          8.7030     3.3960     3.5470 ha         1 03F       0.165000
    111 HAJ         10.4990     1.9070     3.6980 ha         1 03F       0.165000
    112 HAK         10.2340    -0.2510     2.4410 hc         1 03F       0.044200
    113 HAKA         9.4230     0.5770     1.1280 hc         1 03F       0.044200
    114 HAL         11.5110     1.9160     0.7140 hc         1 03F       0.039700
    115 HALA        12.3100     1.0560     2.0140 hc         1 03F       0.039700
    116 HAM         11.9560    -1.1070     0.7780 hc         1 03F       0.037200
    117 HAMA        11.1880    -0.2220    -0.5240 hc         1 03F       0.037200
    118 HAN         13.3070     1.0890    -0.8620 hc         1 03F       0.037700
    119 HN2         -1.8420     2.7300    -0.8260 hn         1 03F       0.312500
    120 HANA        14.0720     0.1600     0.4080 hc         1 03F       0.037700
    121 HAO         13.7010    -1.9410    -0.9140 hc         1 03F       0.036700
    122 HAOA        12.9440    -1.0010    -2.1830 hc         1 03F       0.036700
    123 HO3         -5.9330     1.1480    -0.0080 ho         1 03F       0.441000
    124 HAP         15.0750     0.2900    -2.4860 hc         1 03F       0.037200
    125 HAPA        15.8320    -0.6750    -1.2370 hc         1 03F       0.037200
    126 HAQ         15.4500    -2.7390    -2.6050 hc         1 03F       0.036700
    127 HAQA        14.6980    -1.7710    -3.8520 hc         1 03F       0.036700
    128 HAR         16.8520    -0.5010    -4.1670 hc         1 03F       0.031367
    129 HARA        17.6090    -1.4940    -2.9260 hc         1 03F       0.031367
    130 O5A         -6.6370     7.3900     2.2680 oh         1 03F      -0.712000
@<TRIPOS>BOND
     1     1     2 1   
     2     1    22 1   
     3     1    59 1   
     4     1    61 1   
     5     2     3 1   
     6     2     4 1   
     7     2    52 1   
     8     3    32 1   
     9     3   119 1   
    10     4     5 1   
    11     4     6 1   
    12     4    55 1   
    13     5   123 1   
    14     6     7 2   
    15     6    56 1   
    16     7     8 1   
    17     7    75 1   
    18     8     9 1   
    19     8    79 1   
    20     8    81 1   
    21     9    10 1   
    22     9    83 1   
    23     9    85 1   
    24    10    11 1   
    25    10    87 1   
    26    10    89 1   
    27    11    12 1   
    28    11    92 1   
    29    11    93 1   
    30    12    13 1   
    31    12    57 1   
    32    12    58 1   
    33    13    14 1   
    34    13    60 1   
    35    13    62 1   
    36    14    15 1   
    37    14    64 1   
    38    14    65 1   
    39    15    16 1   
    40    15    68 1   
    41    15    69 1   
    42    16    17 1   
    43    16    71 1   
    44    16    72 1   
    45    17    18 1   
    46    17    74 1   
    47    17    76 1   
    48    18    19 1   
    49    18    80 1   
    50    18    82 1   
    51    19    20 1   
    52    19    84 1   
    53    19    86 1   
    54    20    88 1   
    55    20    90 1   
    56    20    91 1   
    57    21    22 1   
    58    21    23 1   
    59    21    31 1   
    60    21    63 1   
    61    23    24 1   
    62    23    25 1   
    63    23    67 1   
    64    24    54 1   
    65    25    26 1   
    66    25    27 1   
    67    25    70 1   
    68    26    53 1   
    69    27    28 1   
    70    27    29 1   
    71    27    73 1   
    72    28    51 1   
    73    29    30 1   
    74    29    31 1   
    75    29    78 1   
    76    30    94 1   
    77    30    95 1   
    78    30   130 1   
    79    32    33 2   
    80    32    34 1   
    81    34    35 1   
    82    34    96 1   
    83    34    97 1   
    84    35    36 1   
    85    35    98 1   
    86    35    99 1   
    87    36    37 1   
    88    36   100 1   
    89    36   101 1   
    90    37    38 1   
    91    37   102 1   
    92    37   103 1   
    93    38    39 1   
    94    38   104 1   
    95    38   105 1   
    96    39    40 1   
    97    39   106 1   
    98    39   107 1   
    99    40    41 1   
   100    40   108 1   
   101    40   109 1   
   102    41    42 2   
   103    41   110 1   
   104    42    43 1   
   105    42   111 1   
   106    43    44 1   
   107    43   112 1   
   108    43   113 1   
   109    44    45 1   
   110    44   114 1   
   111    44   115 1   
   112    45    46 1   
   113    45   116 1   
   114    45   117 1   
   115    46    47 1   
   116    46   118 1   
   117    46   120 1   
   118    47    48 1   
   119    47   121 1   
   120    47   122 1   
   121    48    49 1   
   122    48   124 1   
   123    48   125 1   
   124    49    50 1   
   125    49   126 1   
   126    49   127 1   
   127    50    66 1   
   128    50   128 1   
   129    50   129 1   
   130    77   130 1   
@<TRIPOS>SUBSTRUCTURE
     1 03F         1 TEMP              0 ****  ****    0 ROOT
