@<TRIPOS>MOLECULE
03G
   47    48     1     0     0
SMALL
bcc


@<TRIPOS>ATOM
      1 C1          -6.1520     0.0770    -0.0490 ca         1 03G       0.003400
      2 C2          -5.3440    -0.8710    -0.6530 ca         1 03G      -0.095000
      3 C3          -3.9660    -0.8100    -0.5060 ca         1 03G      -0.155500
      4 C4          -3.3930     0.2110     0.2530 ca         1 03G       0.069600
      5 C5          -4.2230     1.1560     0.8570 ca         1 03G      -0.155500
      6 C6          -5.5960     1.0950     0.7110 ca         1 03G      -0.095000
      7 N1          -2.0200     0.3530     0.4650 ns         1 03G      -0.444100
      8 C7          -1.0020    -0.3200    -0.0920 c          1 03G       0.589100
      9 CL1         -7.8720    -0.0090    -0.2420 cl         1 03G      -0.109400
     10 C8           0.3590     0.1850     0.4220 c          1 03G       0.588100
     11 N2           1.3860    -0.4530    -0.1200 ns         1 03G      -0.537900
     12 C9           2.7790    -0.1610     0.1670 c6         1 03G       0.114700
     13 C10          3.3290     0.8830    -0.8000 c6         1 03G      -0.120900
     14 C11          4.8240     1.1610    -0.5730 c6         1 03G       0.200700
     15 N3           5.6090    -0.0770    -0.4850 n7         1 03G      -0.811200
     16 C12          5.0910    -1.2030     0.3010 c6         1 03G       0.200700
     17 C13          3.5930    -1.4420     0.0510 c6         1 03G      -0.120900
     18 C14          5.3670     1.9360    -1.7720 c3         1 03G      -0.086350
     19 C15          5.0220     2.0350     0.6690 c3         1 03G      -0.086350
     20 C16          5.3580    -1.0140     1.7980 c3         1 03G      -0.086350
     21 C17          5.8630    -2.4420    -0.1520 c3         1 03G      -0.086350
     22 O1           0.4190     1.0810     1.2530 o          1 03G      -0.608100
     23 O2          -1.0800    -1.2200    -0.9070 o          1 03G      -0.584100
     24 H1          -5.7790    -1.6670    -1.2410 ha         1 03G       0.149500
     25 H2          -3.3610    -1.5630    -0.9820 ha         1 03G       0.153000
     26 H3          -3.7910     1.9560     1.4470 ha         1 03G       0.153000
     27 H4          -6.2220     1.8380     1.1850 ha         1 03G       0.149500
     28 H5          -1.7410     1.0840     1.1080 hn         1 03G       0.351500
     29 H6           1.1830    -1.1520    -0.8210 hn         1 03G       0.339500
     30 H7           2.8190     0.2180     1.1910 h1         1 03G       0.084700
     31 H8           3.1820     0.5130    -1.8210 hc         1 03G       0.050700
     32 H9           2.7560     1.8110    -0.7170 hc         1 03G       0.050700
     33 H10          5.7410    -0.4140    -1.4330 hn         1 03G       0.354800
     34 H11          3.2120    -2.1990     0.7430 hc         1 03G       0.050700
     35 H12          3.4600    -1.8420    -0.9620 hc         1 03G       0.050700
     36 H13          4.8180     2.8670    -1.9140 hc         1 03G       0.040033
     37 H14          6.4210     2.1840    -1.6320 hc         1 03G       0.040033
     38 H15          5.2760     1.3540    -2.6930 hc         1 03G       0.040033
     39 H16          4.5550     1.6320     1.5650 hc         1 03G       0.040033
     40 H17          6.0840     2.1630     0.8780 hc         1 03G       0.040033
     41 H18          4.5880     3.0230     0.5010 hc         1 03G       0.040033
     42 H19          4.7340    -0.2510     2.2610 hc         1 03G       0.040033
     43 H20          5.1660    -1.9470     2.3310 hc         1 03G       0.040033
     44 H21          6.3990    -0.7350     1.9640 hc         1 03G       0.040033
     45 H22          6.9300    -2.3330     0.0530 hc         1 03G       0.040033
     46 H23          5.5070    -3.3310     0.3690 hc         1 03G       0.040033
     47 H24          5.7390    -2.6120    -1.2250 hc         1 03G       0.040033
@<TRIPOS>BOND
     1     1     2 ar  
     2     1     6 ar  
     3     1     9 1   
     4     2     3 ar  
     5     2    24 1   
     6     3     4 ar  
     7     3    25 1   
     8     4     5 ar  
     9     4     7 1   
    10     5     6 ar  
    11     5    26 1   
    12     6    27 1   
    13     7     8 1   
    14     7    28 1   
    15     8    10 1   
    16     8    23 2   
    17    10    11 1   
    18    10    22 2   
    19    11    12 1   
    20    11    29 1   
    21    12    13 1   
    22    12    17 1   
    23    12    30 1   
    24    13    14 1   
    25    13    31 1   
    26    13    32 1   
    27    14    15 1   
    28    14    18 1   
    29    14    19 1   
    30    15    16 1   
    31    15    33 1   
    32    16    17 1   
    33    16    20 1   
    34    16    21 1   
    35    17    34 1   
    36    17    35 1   
    37    18    36 1   
    38    18    37 1   
    39    18    38 1   
    40    19    39 1   
    41    19    40 1   
    42    19    41 1   
    43    20    42 1   
    44    20    43 1   
    45    20    44 1   
    46    21    45 1   
    47    21    46 1   
    48    21    47 1   
@<TRIPOS>SUBSTRUCTURE
     1 03G         1 TEMP              0 ****  ****    0 ROOT
