@<TRIPOS>MOLECULE
03G
   47    48     1     0     0
SMALL
No Charge or Current Charge


@<TRIPOS>ATOM
      1 C1          -6.3530     0.1630    -0.0170 ca         1 03G       0.095000
      2 C2          -5.5640    -0.8150    -0.6430 ca         1 03G      -0.077000
      3 C3          -4.1620    -0.7690    -0.5330 ca         1 03G      -0.137500
      4 C4          -3.5370     0.2600     0.2080 ca         1 03G      -0.023000
      5 C5          -4.3410     1.2350     0.8320 ca         1 03G      -0.137500
      6 C6          -5.7420     1.1880     0.7200 ca         1 03G      -0.077000
      7 N1          -2.1260     0.3710     0.3640 ns         1 03G      -0.118000
      8 C7          -1.0660    -0.3990    -0.1040 c          1 03G       0.522100
      9 Cl1         -8.1050     0.1020    -0.1570 cl         1 03G      -0.201000
     10 C8           0.3610     0.1610     0.3590 c          1 03G       0.521100
     11 N2           1.4470    -0.5740    -0.0880 ns         1 03G      -0.470900
     12 C9           2.8570    -0.2660     0.1760 c6         1 03G       0.114700
     13 C10          3.3780     0.7930    -0.8210 c6         1 03G      -0.120900
     14 C11          4.8650     1.1710    -0.5680 c6         1 03G       0.200700
     15 N3           5.7180    -0.1230    -0.5060 n7         1 03G      -0.866400
     16 C12          5.2220    -1.2690     0.3020 c6         1 03G       0.200700
     17 C13          3.7160    -1.5380     0.0310 c6         1 03G      -0.120900
     18 C14          5.3280     2.1130    -1.7690 c3         1 03G      -0.086350
     19 C15          4.9860     2.1020     0.7200 c3         1 03G      -0.086350
     20 C16          5.5240    -1.0570     1.8190 c3         1 03G      -0.086350
     21 C17          6.0540    -2.5100    -0.1380 c3         1 03G      -0.086350
     22 O1           0.4960     1.1640     1.0590 o          1 03G      -0.608100
     23 O2          -1.1820    -1.4100    -0.8010 o          1 03G      -0.584100
     24 H1          -6.0390    -1.6090    -1.2140 ha         1 03G       0.131500
     25 H2          -3.5840    -1.5420    -1.0300 ha         1 03G       0.135000
     26 H3          -3.8810     2.0370     1.4070 ha         1 03G       0.135000
     27 H4          -6.3540     1.9460     1.2050 ha         1 03G       0.131500
     28 H5          -1.8360     1.1640     0.9230 hn         1 03G       0.185000
     29 H6           1.2280    -1.3860    -0.6580 hn         1 03G       0.339500
     30 H7           2.9440     0.1170     1.2020 h1         1 03G       0.084700
     31 H8           3.2620     0.4110    -1.8450 hc         1 03G       0.050700
     32 H9           2.7530     1.6940    -0.7630 hc         1 03G       0.050700
     33 H10          5.8120    -0.4600    -1.4690 hn         1 03G       0.410000
     34 H11          3.3500    -2.3130     0.7180 hc         1 03G       0.050700
     35 H12          3.5900    -1.9450    -0.9820 hc         1 03G       0.050700
     36 H13          4.6930     3.0020    -1.8580 hc         1 03G       0.040033
     37 H14          6.3610     2.4530    -1.6300 hc         1 03G       0.040033
     38 H15          5.2860     1.5820    -2.7280 hc         1 03G       0.040033
     39 H16          4.4920     1.6850     1.6000 hc         1 03G       0.040033
     40 H17          6.0370     2.2770     0.9800 hc         1 03G       0.040033
     41 H18          4.5240     3.0820     0.5490 hc         1 03G       0.040033
     42 H19          4.8670    -0.3230     2.2890 hc         1 03G       0.040033
     43 H20          5.3860    -1.9890     2.3800 hc         1 03G       0.040033
     44 H21          6.5590    -0.7310     1.9820 hc         1 03G       0.040033
     45 H22          7.1240    -2.3710     0.0580 hc         1 03G       0.040033
     46 H23          5.7380    -3.4160     0.3960 hc         1 03G       0.040033
     47 H24          5.9400    -2.7110    -1.2100 hc         1 03G       0.040033
@<TRIPOS>BOND
     1     1     2 ar  
     2     1     6 ar  
     3     1     9 1   
     4     2     3 ar  
     5     2    24 1   
     6     3     4 ar  
     7     3    25 1   
     8     4     5 ar  
     9     4     7 1   
    10     5     6 ar  
    11     5    26 1   
    12     6    27 1   
    13     7     8 1   
    14     7    28 1   
    15     8    10 1   
    16     8    23 2   
    17    10    11 1   
    18    10    22 2   
    19    11    12 1   
    20    11    29 1   
    21    12    13 1   
    22    12    17 1   
    23    12    30 1   
    24    13    14 1   
    25    13    31 1   
    26    13    32 1   
    27    14    15 1   
    28    14    18 1   
    29    14    19 1   
    30    15    16 1   
    31    15    33 1   
    32    16    17 1   
    33    16    20 1   
    34    16    21 1   
    35    17    34 1   
    36    17    35 1   
    37    18    36 1   
    38    18    37 1   
    39    18    38 1   
    40    19    39 1   
    41    19    40 1   
    42    19    41 1   
    43    20    42 1   
    44    20    43 1   
    45    20    44 1   
    46    21    45 1   
    47    21    46 1   
    48    21    47 1   
@<TRIPOS>SUBSTRUCTURE
     1 03G         1 TEMP              0 ****  ****    0 ROOT
