@<TRIPOS>MOLECULE
03H
   19    18     1     0     0
SMALL
abcg2


@<TRIPOS>ATOM
      1 CL           0.5220     1.8110     0.1780 cl         1 03H      -0.369000
      2 C1           1.8310    -0.6200    -0.1650 c          1 03H       0.723000
      3 O1           1.8910    -1.8450     0.0590 o          1 03H      -0.711500
      4 C2           0.4970     0.0050     0.3130 c3         1 03H       0.033300
      5 O2           2.6770     0.0990    -0.7100 o          1 03H      -0.711500
      6 C3          -0.6910    -0.5520    -0.4550 c3         1 03H      -0.069400
      7 C4          -2.0730    -0.0460    -0.0420 c3         1 03H      -0.065700
      8 C5          -3.1390    -0.7520    -0.8750 c3         1 03H      -0.081600
      9 C6          -2.3380    -0.2370     1.4470 c3         1 03H      -0.081600
     10 H2           0.3820    -0.1960     1.3790 h1         1 03H       0.045700
     11 H3          -0.5440    -0.3690    -1.5240 hc         1 03H       0.052700
     12 H3A         -0.6600    -1.6380    -0.3200 hc         1 03H       0.052700
     13 H4          -2.1290     1.0250    -0.2630 hc         1 03H       0.048700
     14 H5          -3.1250    -1.8300    -0.6980 hc         1 03H       0.022033
     15 H5A         -4.1390    -0.3880    -0.6300 hc         1 03H       0.022033
     16 H5B         -2.9830    -0.5920    -1.9440 hc         1 03H       0.022033
     17 H6          -2.2210    -1.2840     1.7370 hc         1 03H       0.022033
     18 H6A         -1.6620     0.3570     2.0640 hc         1 03H       0.022033
     19 H6B         -3.3550     0.0650     1.7020 hc         1 03H       0.022033
@<TRIPOS>BOND
     1     1     4 1   
     2     2     3 1   
     3     2     4 1   
     4     2     5 1   
     5     4     6 1   
     6     4    10 1   
     7     6     7 1   
     8     6    11 1   
     9     6    12 1   
    10     7     8 1   
    11     7     9 1   
    12     7    13 1   
    13     8    14 1   
    14     8    15 1   
    15     8    16 1   
    16     9    17 1   
    17     9    18 1   
    18     9    19 1   
@<TRIPOS>SUBSTRUCTURE
     1 03H         1 TEMP              0 ****  ****    0 ROOT
