@<TRIPOS>MOLECULE
03H
   19    18     1     0     0
SMALL
No Charge or Current Charge


@<TRIPOS>ATOM
      1 Cl           0.6280     1.8590     0.1920 cl         1 03H      -0.369000
      2 C1           1.8790    -0.6630    -0.0710 c          1 03H       0.723000
      3 O1           2.6030    -1.0710     0.8280 o          1 03H      -0.711500
      4 C2           0.5360     0.0280     0.3230 c3         1 03H       0.033300
      5 O2           2.1660    -0.7690    -1.2580 o          1 03H      -0.711500
      6 C3          -0.6760    -0.5260    -0.4790 c3         1 03H      -0.069400
      7 C4          -2.0810    -0.0530    -0.0050 c3         1 03H      -0.065700
      8 C5          -3.1830    -0.5650    -0.9610 c3         1 03H      -0.081600
      9 C6          -2.3940    -0.4580     1.4550 c3         1 03H      -0.081600
     10 H2           0.3810    -0.1870     1.3870 h1         1 03H       0.045700
     11 H3          -0.5460    -0.2530    -1.5340 hc         1 03H       0.052700
     12 H3A         -0.6460    -1.6220    -0.4390 hc         1 03H       0.052700
     13 H4          -2.1080     1.0430    -0.0540 hc         1 03H       0.048700
     14 H5          -3.2230    -1.6620    -0.9600 hc         1 03H       0.022033
     15 H5A         -4.1670    -0.1860    -0.6590 hc         1 03H       0.022033
     16 H5B         -2.9940    -0.2290    -1.9880 hc         1 03H       0.022033
     17 H6          -2.3160    -1.5450     1.5850 hc         1 03H       0.022033
     18 H6A         -1.7060     0.0260     2.1580 hc         1 03H       0.022033
     19 H6B         -3.4110    -0.1540     1.7310 hc         1 03H       0.022033
@<TRIPOS>BOND
     1     1     4 1   
     2     2     3 1   
     3     2     4 1   
     4     2     5 1   
     5     4     6 1   
     6     4    10 1   
     7     6     7 1   
     8     6    11 1   
     9     6    12 1   
    10     7     8 1   
    11     7     9 1   
    12     7    13 1   
    13     8    14 1   
    14     8    15 1   
    15     8    16 1   
    16     9    17 1   
    17     9    18 1   
    18     9    19 1   
@<TRIPOS>SUBSTRUCTURE
     1 03H         1 TEMP              0 ****  ****    0 ROOT
