@<TRIPOS>MOLECULE
03I
   68    70     1     0     0
SMALL
abcg2


@<TRIPOS>ATOM
      1 C1          -1.0300     0.8540    -0.2150 cp         1 03I      -0.077000
      2 C2          -1.6860     1.9380     0.3760 ca         1 03I      -0.060000
      3 C3          -3.0520     1.9320     0.5780 ca         1 03I      -0.175000
      4 C4          -3.8180     0.8300     0.1920 ca         1 03I       0.152100
      5 C5          -3.1830    -0.2610    -0.3980 ca         1 03I      -0.175000
      6 C6          -1.8080    -0.2360    -0.5930 ca         1 03I      -0.060000
      7 O7          -5.1410     0.9080     0.4250 os         1 03I      -0.346100
      8 C8           0.4300     0.8640    -0.4290 cp         1 03I      -0.017000
      9 C9           1.2880     1.4940     0.4760 ca         1 03I      -0.101000
     10 C10          2.6590     1.4980     0.2750 ca         1 03I      -0.104000
     11 C11          3.2280     0.8730    -0.8310 ca         1 03I      -0.086300
     12 C12          2.3750     0.2440    -1.7340 ca         1 03I      -0.104000
     13 C13          1.0020     0.2420    -1.5410 ca         1 03I      -0.101000
     14 C14          4.7190     0.8390    -1.0130 c3         1 03I      -0.036100
     15 C15          5.3090    -0.3470    -0.2430 c3         1 03I      -0.057400
     16 C16          6.8300    -0.5480    -0.3230 c3         1 03I      -0.307000
     17 C17          7.1800    -1.7540     0.5630 c          1 03I       0.622100
     18 S18          7.7630     0.8560     0.4260 s6         1 03I       1.060000
     19 C19          6.9170     1.3470     1.9130 c3         1 03I      -0.316100
     20 O20          9.0820     0.3360     0.7900 o          1 03I      -0.514000
     21 O21          7.7150     1.9840    -0.5050 o          1 03I      -0.514000
     22 C22          7.3210    -0.6390    -1.7660 c3         1 03I      -0.093100
     23 N23          7.9070    -2.7100    -0.0230 ns         1 03I      -0.361400
     24 O24          6.8070    -1.8090     1.7210 o          1 03I      -0.583100
     25 C25         -5.9680    -0.1810     0.0480 c3         1 03I       0.164600
     26 C26         -7.3990     0.1670     0.4000 c3         1 03I      -0.083400
     27 C27         -8.3350    -0.9560    -0.0290 c3         1 03I       0.169800
     28 O28          8.1510    -3.8690     0.6420 oh         1 03I      -0.416100
     29 N29         -9.7140    -0.7400     0.3630 n3         1 03I      -0.711600
     30 C30        -10.5030    -1.9420     0.1560 c6         1 03I       0.124800
     31 C31        -11.9360    -1.7180     0.5970 c6         1 03I       0.153100
     32 O32        -12.5240    -0.6330    -0.0880 os         1 03I      -0.449000
     33 C33        -11.7720     0.5430     0.1100 c6         1 03I       0.153100
     34 C34        -10.3310     0.3750    -0.3340 c6         1 03I       0.124800
     35 H2          -1.1260     2.8170     0.6720 ha         1 03I       0.114000
     36 H3          -3.5390     2.7880     1.0290 ha         1 03I       0.122500
     37 H5          -3.7330    -1.1380    -0.7080 ha         1 03I       0.122500
     38 H6          -1.3400    -1.1070    -1.0340 ha         1 03I       0.114000
     39 H9           0.8850     1.9720     1.3600 ha         1 03I       0.115500
     40 H10          3.2960     1.9950     0.9990 ha         1 03I       0.109500
     41 H12          2.7870    -0.2400    -2.6120 ha         1 03I       0.109500
     42 H13          0.3690    -0.2340    -2.2790 ha         1 03I       0.115500
     43 H14          4.9580     0.7570    -2.0740 hc         1 03I       0.058700
     44 H14A         5.1490     1.7810    -0.6710 hc         1 03I       0.058700
     45 H15          5.0020    -0.2920     0.8030 hc         1 03I       0.066200
     46 H15A         4.8600    -1.2660    -0.6330 hc         1 03I       0.066200
     47 H19          6.8780     0.5190     2.6130 h1         1 03I       0.112033
     48 H19A         7.5060     2.1660     2.3240 h1         1 03I       0.112033
     49 H19B         5.9170     1.7030     1.6810 h1         1 03I       0.112033
     50 H22          7.0720     0.2610    -2.3220 hc         1 03I       0.061367
     51 H22A         8.4000    -0.7740    -1.8420 hc         1 03I       0.061367
     52 H22B         6.8270    -1.4710    -2.2690 hc         1 03I       0.061367
     53 HN23         8.1570    -2.7220    -1.0000 hn         1 03I       0.350500
     54 H25         -5.8780    -0.3700    -1.0280 h1         1 03I       0.034200
     55 H25A        -5.6560    -1.0930     0.5700 h1         1 03I       0.034200
     56 H26         -7.4930     0.3240     1.4780 hc         1 03I       0.063700
     57 H26A        -7.6660     1.1040    -0.0930 hc         1 03I       0.063700
     58 H27         -8.2460    -1.1120    -1.1190 h1         1 03I       0.030700
     59 H27A        -8.0020    -1.8870     0.4420 h1         1 03I       0.030700
     60 HO28         9.0040    -3.7560     1.0830 ho         1 03I       0.452000
     61 H30        -10.4920    -2.2630    -0.9000 h1         1 03I       0.041450
     62 H30A       -10.0760    -2.7600     0.7420 h1         1 03I       0.041450
     63 H31        -12.5360    -2.6040     0.3830 h1         1 03I       0.051450
     64 H31A       -11.9630    -1.5460     1.6820 h1         1 03I       0.051450
     65 H33        -12.2480     1.3370    -0.4680 h1         1 03I       0.051450
     66 H33A       -11.7930     0.8380     1.1690 h1         1 03I       0.051450
     67 H34         -9.8010     1.3020    -0.1040 h1         1 03I       0.041450
     68 H34A       -10.2910     0.2400    -1.4290 h1         1 03I       0.041450
@<TRIPOS>BOND
     1     1     2 ar  
     2     1     6 ar  
     3     1     8 1   
     4     2     3 ar  
     5     2    35 1   
     6     3     4 ar  
     7     3    36 1   
     8     4     5 ar  
     9     4     7 1   
    10     5     6 ar  
    11     5    37 1   
    12     6    38 1   
    13     7    25 1   
    14     8     9 ar  
    15     8    13 ar  
    16     9    10 ar  
    17     9    39 1   
    18    10    11 ar  
    19    10    40 1   
    20    11    12 ar  
    21    11    14 1   
    22    12    13 ar  
    23    12    41 1   
    24    13    42 1   
    25    14    15 1   
    26    14    43 1   
    27    14    44 1   
    28    15    16 1   
    29    15    45 1   
    30    15    46 1   
    31    16    17 1   
    32    16    18 1   
    33    16    22 1   
    34    17    23 1   
    35    17    24 2   
    36    18    19 1   
    37    18    20 2   
    38    18    21 2   
    39    19    47 1   
    40    19    48 1   
    41    19    49 1   
    42    22    50 1   
    43    22    51 1   
    44    22    52 1   
    45    23    28 1   
    46    23    53 1   
    47    25    26 1   
    48    25    54 1   
    49    25    55 1   
    50    26    27 1   
    51    26    56 1   
    52    26    57 1   
    53    27    29 1   
    54    27    58 1   
    55    27    59 1   
    56    28    60 1   
    57    29    30 1   
    58    29    34 1   
    59    30    31 1   
    60    30    61 1   
    61    30    62 1   
    62    31    32 1   
    63    31    63 1   
    64    31    64 1   
    65    32    33 1   
    66    33    34 1   
    67    33    65 1   
    68    33    66 1   
    69    34    67 1   
    70    34    68 1   
@<TRIPOS>SUBSTRUCTURE
     1 03I         1 TEMP              0 ****  ****    0 ROOT
