@<TRIPOS>MOLECULE
03I
   68    70     1     0     0
SMALL
No Charge or Current Charge


@<TRIPOS>ATOM
      1 C1          -1.0220     0.8130    -0.2680 cp         1 03I      -0.077000
      2 C2          -1.7150     1.9480     0.2230 ca         1 03I      -0.060000
      3 C3          -3.1120     1.9310     0.3810 ca         1 03I      -0.175000
      4 C4          -3.8510     0.7850     0.0570 ca         1 03I       0.152100
      5 C5          -3.1810    -0.3560    -0.4320 ca         1 03I      -0.175000
      6 C6          -1.7840    -0.3380    -0.5920 ca         1 03I      -0.060000
      7 O7          -5.2190     0.8280     0.2340 os         1 03I      -0.346100
      8 C8           0.4670     0.8290    -0.4380 cp         1 03I      -0.017000
      9 C9           1.3000     1.5390     0.4620 ca         1 03I      -0.101000
     10 C10          2.6970     1.5540     0.3030 ca         1 03I      -0.104000
     11 C11          3.2980     0.8610    -0.7630 ca         1 03I      -0.086300
     12 C12          2.4870     0.1500    -1.6650 ca         1 03I      -0.104000
     13 C13          1.0910     0.1350    -1.5050 ca         1 03I      -0.101000
     14 C14          4.8110     0.8710    -0.9320 c3         1 03I      -0.036100
     15 C15          5.4720    -0.3210    -0.1910 c3         1 03I      -0.057400
     16 C16          7.0430    -0.4520    -0.2590 c3         1 03I      -0.307000
     17 C17          7.4520    -1.6970     0.5630 c          1 03I       0.622100
     18 S18          7.9250     0.9470     0.5290 s6         1 03I       1.060000
     19 C19          7.0840     1.3180     2.0720 c3         1 03I      -0.316100
     20 O20          9.2810     0.4950     0.8640 o          1 03I      -0.514000
     21 O21          7.7730     2.1280    -0.3300 o          1 03I      -0.514000
     22 C22          7.5060    -0.5460    -1.7590 c3         1 03I      -0.093100
     23 N23          8.2300    -2.6560    -0.0800 ns         1 03I      -0.361400
     24 O24          7.0770    -1.8670     1.7160 o          1 03I      -0.583100
     25 C25         -6.0650    -0.2940    -0.0710 c3         1 03I       0.164600
     26 C26         -7.5150     0.1150     0.2460 c3         1 03I      -0.083400
     27 C27         -8.5220    -1.0160    -0.0500 c3         1 03I       0.169800
     28 O28          8.4240    -3.9730     0.4960 oh         1 03I      -0.416100
     29 N29         -9.9140    -0.7340     0.3770 n3         1 03I      -0.711600
     30 C30        -10.7920    -1.9420     0.2740 c6         1 03I       0.124800
     31 C31        -12.2470    -1.6480     0.7480 c6         1 03I       0.153100
     32 O32        -12.7970    -0.5300     0.0110 os         1 03I      -0.449000
     33 C33        -12.0090     0.6750     0.1590 c6         1 03I       0.153100
     34 C34        -10.5470     0.4320    -0.3230 c6         1 03I       0.124800
     35 H2          -1.1690     2.8550     0.4700 ha         1 03I       0.114000
     36 H3          -3.6240     2.8140     0.7560 ha         1 03I       0.122500
     37 H5          -3.7220    -1.2610    -0.6910 ha         1 03I       0.122500
     38 H6          -1.2870    -1.2330    -0.9580 ha         1 03I       0.114000
     39 H9           0.8630     2.0730     1.3020 ha         1 03I       0.115500
     40 H10          3.3110     2.1030     1.0130 ha         1 03I       0.109500
     41 H12          2.9380    -0.3920    -2.4940 ha         1 03I       0.109500
     42 H13          0.4870    -0.4120    -2.2240 ha         1 03I       0.115500
     43 H14          5.0560     0.8330    -2.0000 hc         1 03I       0.058700
     44 H14A         5.2090     1.8210    -0.5580 hc         1 03I       0.058700
     45 H15          5.1440    -0.2910     0.8550 hc         1 03I       0.066200
     46 H15A         5.0370    -1.2430    -0.5990 hc         1 03I       0.066200
     47 H19          7.1120     0.4290     2.7080 h1         1 03I       0.112033
     48 H19A         7.6250     2.1450     2.5420 h1         1 03I       0.112033
     49 H19B         6.0560     1.6130     1.8400 h1         1 03I       0.112033
     50 H22          7.2570     0.3640    -2.3170 hc         1 03I       0.061367
     51 H22A         8.5940    -0.6710    -1.8420 hc         1 03I       0.061367
     52 H22B         7.0200    -1.3850    -2.2740 hc         1 03I       0.061367
     53 HN23         8.3840    -2.5810    -1.0830 hn         1 03I       0.350500
     54 H25         -5.9850    -0.5640    -1.1320 h1         1 03I       0.034200
     55 H25A        -5.7890    -1.1650     0.5380 h1         1 03I       0.034200
     56 H26         -7.5870     0.3930     1.3040 hc         1 03I       0.063700
     57 H26A        -7.7650     1.0020    -0.3470 hc         1 03I       0.063700
     58 H27         -8.4980    -1.2380    -1.1260 h1         1 03I       0.030700
     59 H27A        -8.1670    -1.9180     0.4690 h1         1 03I       0.030700
     60 HO28         9.4020    -4.0990     0.4640 ho         1 03I       0.452000
     61 H30        -10.8280    -2.3000    -0.7650 h1         1 03I       0.041450
     62 H30A       -10.3850    -2.7630     0.8820 h1         1 03I       0.041450
     63 H31        -12.8790    -2.5320     0.5880 h1         1 03I       0.051450
     64 H31A       -12.2520    -1.4130     1.8230 h1         1 03I       0.051450
     65 H33        -12.4690     1.4800    -0.4310 h1         1 03I       0.051450
     66 H33A       -12.0100     0.9820     1.2150 h1         1 03I       0.051450
     67 H34         -9.9750     1.3530    -0.1440 h1         1 03I       0.041450
     68 H34A       -10.5580     0.2640    -1.4100 h1         1 03I       0.041450
@<TRIPOS>BOND
     1     1     2 ar  
     2     1     6 ar  
     3     1     8 1   
     4     2     3 ar  
     5     2    35 1   
     6     3     4 ar  
     7     3    36 1   
     8     4     5 ar  
     9     4     7 1   
    10     5     6 ar  
    11     5    37 1   
    12     6    38 1   
    13     7    25 1   
    14     8     9 ar  
    15     8    13 ar  
    16     9    10 ar  
    17     9    39 1   
    18    10    11 ar  
    19    10    40 1   
    20    11    12 ar  
    21    11    14 1   
    22    12    13 ar  
    23    12    41 1   
    24    13    42 1   
    25    14    15 1   
    26    14    43 1   
    27    14    44 1   
    28    15    16 1   
    29    15    45 1   
    30    15    46 1   
    31    16    17 1   
    32    16    18 1   
    33    16    22 1   
    34    17    23 1   
    35    17    24 2   
    36    18    19 1   
    37    18    20 2   
    38    18    21 2   
    39    19    47 1   
    40    19    48 1   
    41    19    49 1   
    42    22    50 1   
    43    22    51 1   
    44    22    52 1   
    45    23    28 1   
    46    23    53 1   
    47    25    26 1   
    48    25    54 1   
    49    25    55 1   
    50    26    27 1   
    51    26    56 1   
    52    26    57 1   
    53    27    29 1   
    54    27    58 1   
    55    27    59 1   
    56    28    60 1   
    57    29    30 1   
    58    29    34 1   
    59    30    31 1   
    60    30    61 1   
    61    30    62 1   
    62    31    32 1   
    63    31    63 1   
    64    31    64 1   
    65    32    33 1   
    66    33    34 1   
    67    33    65 1   
    68    33    66 1   
    69    34    67 1   
    70    34    68 1   
@<TRIPOS>SUBSTRUCTURE
     1 03I         1 TEMP              0 ****  ****    0 ROOT
