@<TRIPOS>MOLECULE
03J
   37    39     1     0     0
SMALL
No Charge or Current Charge


@<TRIPOS>ATOM
      1 O2          -7.1610    -2.0560    -0.1480 o          1 03J      -0.737500
      2 S7           1.7330     2.5650    -0.1960 ss         1 03J       0.203000
      3 C11         -6.7870    -1.0570     0.4480 c          1 03J       0.718000
      4 C12         -5.2740    -0.8240     0.5940 c3         1 03J      -0.204400
      5 C13         -4.7410    -0.0320    -0.6220 c3         1 03J      -0.026100
      6 C14         -2.3250    -0.6900    -1.0710 ca         1 03J      -0.119000
      7 C15         -1.3770     1.6320     0.1830 ca         1 03J      -0.097000
      8 C16         -0.4530     0.7120    -0.3520 ca         1 03J      -0.056000
      9 C17         -0.9420    -0.4510    -0.9840 ca         1 03J      -0.097000
     10 C18          0.9860     0.9810    -0.2580 cc         1 03J      -0.111000
     11 C19          1.9120    -0.0260    -0.1570 cd         1 03J      -0.140000
     12 C20          3.2630     0.4380    -0.0520 cd         1 03J      -0.056000
     13 C21          4.4580    -0.4390     0.0650 ca         1 03J       0.001000
     14 C22          5.7560     0.1140     0.1830 ca         1 03J      -0.102500
     15 C23          6.8880    -0.7120     0.2940 ca         1 03J      -0.114000
     16 C24          6.7460    -2.1070     0.2890 ca         1 03J      -0.118000
     17 C25          5.4690    -2.6740     0.1730 ca         1 03J      -0.114000
     18 C26          4.3360    -1.8490     0.0620 ca         1 03J      -0.102500
     19 C27         -3.2420     0.2290    -0.5300 ca         1 03J      -0.027300
     20 C28         -2.7590     1.3910     0.0970 ca         1 03J      -0.119000
     21 C29          3.3230     1.8190    -0.0660 cc         1 03J      -0.257000
     22 H12         -5.0640    -0.2020     1.4730 hc         1 03J       0.021200
     23 H12A        -4.7350    -1.7790     0.5900 hc         1 03J       0.021200
     24 H13         -4.9690    -0.5860    -1.5420 hc         1 03J       0.053200
     25 H13A        -5.2820     0.9190    -0.7000 hc         1 03J       0.053200
     26 H14         -2.6830    -1.5930    -1.5610 ha         1 03J       0.116500
     27 H15         -1.0280     2.5350     0.6770 ha         1 03J       0.100500
     28 H17         -0.2560    -1.1700    -1.4250 ha         1 03J       0.100500
     29 H19          1.6330    -1.0720    -0.1460 ha         1 03J       0.136000
     30 H22          5.9040     1.1890     0.1910 ha         1 03J       0.115000
     31 H23          7.8770    -0.2680     0.3850 ha         1 03J       0.107000
     32 H24          7.6220    -2.7460     0.3750 ha         1 03J       0.106000
     33 H25          5.3550    -3.7560     0.1680 ha         1 03J       0.107000
     34 H26          3.3660    -2.3260    -0.0280 ha         1 03J       0.115000
     35 H28         -3.4560     2.1100     0.5220 ha         1 03J       0.116500
     36 H29          4.1810     2.4720    -0.0040 h4         1 03J       0.142000
     37 OXT         -7.5460    -0.2070     0.8870 o          1 03J      -0.737500
@<TRIPOS>BOND
     1     1     3 1   
     2     2    10 1   
     3     2    21 1   
     4     3     4 1   
     5     3    37 1   
     6     4     5 1   
     7     4    22 1   
     8     4    23 1   
     9     5    19 1   
    10     5    24 1   
    11     5    25 1   
    12     6     9 ar  
    13     6    19 ar  
    14     6    26 1   
    15     7     8 ar  
    16     7    20 ar  
    17     7    27 1   
    18     8     9 ar  
    19     8    10 1   
    20     9    28 1   
    21    10    11 2   
    22    11    12 1   
    23    11    29 1   
    24    12    13 1   
    25    12    21 2   
    26    13    14 ar  
    27    13    18 ar  
    28    14    15 ar  
    29    14    30 1   
    30    15    16 ar  
    31    15    31 1   
    32    16    17 ar  
    33    16    32 1   
    34    17    18 ar  
    35    17    33 1   
    36    18    34 1   
    37    19    20 ar  
    38    20    35 1   
    39    21    36 1   
@<TRIPOS>SUBSTRUCTURE
     1 03J         1 TEMP              0 ****  ****    0 ROOT
