@<TRIPOS>MOLECULE
03J
   37    39     1     0     0
SMALL
bcc


@<TRIPOS>ATOM
      1 O2          -7.4380    -0.6890    -0.6540 o          1 03J      -0.842800
      2 S7           1.6480     2.3540     0.1430 ss         1 03J      -0.086800
      3 C11         -6.8370    -0.9230     0.4120 c          1 03J       0.928600
      4 C12         -5.3290    -0.6150     0.4720 c3         1 03J      -0.204400
      5 C13         -4.7270    -0.0230    -0.8000 c3         1 03J      -0.026100
      6 C14         -2.3260    -0.7500    -1.0590 ca         1 03J      -0.137000
      7 C15         -1.3970     1.5650     0.1200 ca         1 03J      -0.115000
      8 C16         -0.4730     0.6020    -0.2900 ca         1 03J      -0.056000
      9 C17         -0.9650    -0.5600    -0.8900 ca         1 03J      -0.115000
     10 C18          0.9650     0.7860    -0.1030 cc         1 03J       0.033900
     11 C19          1.9490    -0.1620    -0.1070 cd         1 03J      -0.158000
     12 C20          3.2600     0.3650     0.0870 cd         1 03J      -0.056000
     13 C21          4.4820    -0.4500     0.1220 ca         1 03J       0.001000
     14 C22          5.7230     0.0990    -0.2080 ca         1 03J      -0.120500
     15 C23          6.8760    -0.6690    -0.1620 ca         1 03J      -0.132000
     16 C24          6.8120    -2.0070     0.2080 ca         1 03J      -0.136000
     17 C25          5.5840    -2.5670     0.5310 ca         1 03J      -0.132000
     18 C26          4.4310    -1.7960     0.4910 ca         1 03J      -0.120500
     19 C27         -3.2510     0.2110    -0.6540 ca         1 03J      -0.027300
     20 C28         -2.7570     1.3730    -0.0650 ca         1 03J      -0.137000
     21 C29          3.2330     1.7240     0.2420 cc         1 03J      -0.130100
     22 H12         -5.1490     0.0650     1.3120 hc         1 03J       0.021200
     23 H12A        -4.7970    -1.5370     0.7340 hc         1 03J       0.021200
     24 H13         -4.9090    -0.6960    -1.6400 hc         1 03J       0.053200
     25 H13A        -5.2270     0.9190    -1.0390 hc         1 03J       0.053200
     26 H14         -2.6770    -1.6630    -1.5260 ha         1 03J       0.134500
     27 H15         -1.0620     2.4770     0.6010 ha         1 03J       0.118500
     28 H17         -0.2810    -1.3210    -1.2450 ha         1 03J       0.118500
     29 H19          1.7460    -1.2140    -0.2490 ha         1 03J       0.154000
     30 H22          5.7900     1.1340    -0.5210 ha         1 03J       0.133000
     31 H23          7.8270    -0.2230    -0.4240 ha         1 03J       0.125000
     32 H24          7.7120    -2.6080     0.2430 ha         1 03J       0.124000
     33 H25          5.5210    -3.6080     0.8220 ha         1 03J       0.125000
     34 H26          3.4860    -2.2480     0.7630 ha         1 03J       0.133000
     35 H28         -3.4460     2.1430     0.2610 ha         1 03J       0.134500
     36 H29          4.0620     2.3900     0.4290 h4         1 03J       0.160000
     37 OXT         -7.3340    -1.3920     1.4570 o          1 03J      -0.842800
@<TRIPOS>BOND
     1     1     3 1   
     2     2    10 1   
     3     2    21 1   
     4     3     4 1   
     5     3    37 1   
     6     4     5 1   
     7     4    22 1   
     8     4    23 1   
     9     5    19 1   
    10     5    24 1   
    11     5    25 1   
    12     6     9 ar  
    13     6    19 ar  
    14     6    26 1   
    15     7     8 ar  
    16     7    20 ar  
    17     7    27 1   
    18     8     9 ar  
    19     8    10 1   
    20     9    28 1   
    21    10    11 2   
    22    11    12 1   
    23    11    29 1   
    24    12    13 1   
    25    12    21 2   
    26    13    14 ar  
    27    13    18 ar  
    28    14    15 ar  
    29    14    30 1   
    30    15    16 ar  
    31    15    31 1   
    32    16    17 ar  
    33    16    32 1   
    34    17    18 ar  
    35    17    33 1   
    36    18    34 1   
    37    19    20 ar  
    38    20    35 1   
    39    21    36 1   
@<TRIPOS>SUBSTRUCTURE
     1 03J         1 TEMP              0 ****  ****    0 ROOT
