@<TRIPOS>MOLECULE
03K
   34    36     1     0     0
SMALL
abcg2


@<TRIPOS>ATOM
      1 N1L         -0.7230    -0.3340    -0.2530 ns         1 03K      -0.467400
      2 N2A          6.2970    -1.3310     0.5060 nt         1 03K      -0.602000
      3 N3K         -4.0460    -1.0740    -0.4660 na         1 03K      -0.002200
      4 N4M         -2.7550    -1.3800    -0.6170 nc         1 03K      -0.579800
      5 OAB          6.4930     0.4010    -0.9250 o          1 03K      -0.597100
      6 OAC         -0.2780     1.8100     0.3260 o          1 03K      -0.575100
      7 CAD          3.8140     1.1590    -0.4070 ca         1 03K      -0.082000
      8 CAE          3.4350    -1.1360     0.1830 ca         1 03K      -0.082000
      9 CAF          2.4540     1.4020    -0.3400 ca         1 03K      -0.081000
     10 CAG          2.0700    -0.9000     0.2230 ca         1 03K      -0.081000
     11 CAH         -2.9940     0.7150     0.1940 cd         1 03K      -0.217000
     12 CAI         -6.6960    -0.0750     0.8340 cx         1 03K      -0.124400
     13 CAJ         -6.7610     0.4100    -0.5750 cx         1 03K      -0.124400
     14 CAO          0.1090     0.6920     0.0340 c          1 03K       0.622700
     15 CAP          4.3200    -0.1090    -0.1310 ca         1 03K      -0.131600
     16 CAQ          1.5670     0.3710    -0.0380 ca         1 03K      -0.132600
     17 CAR         -2.1110    -0.3010    -0.2180 cd         1 03K       0.381900
     18 CAS         -4.2480     0.1640     0.0150 cc         1 03K      -0.093300
     19 CAT         -5.5680     0.7520     0.2770 cx         1 03K      -0.070400
     20 HN1L        -0.3300    -1.2010    -0.5880 hn         1 03K       0.334500
     21 HN2A         7.2870    -1.5150     0.4940 hn         1 03K       0.315500
     22 HN2B         5.7490    -1.8300     1.1840 hn         1 03K       0.315500
     23 HAD          4.4870     1.9660    -0.6630 ha         1 03K       0.128000
     24 HAE          3.7900    -2.1380     0.3850 ha         1 03K       0.128000
     25 HAF          2.0790     2.3970    -0.5370 ha         1 03K       0.129500
     26 HAG          1.4140    -1.7210     0.4840 ha         1 03K       0.129500
     27 HAH         -2.7690     1.6970     0.5670 ha         1 03K       0.169000
     28 HAI         -7.3350     0.3930     1.5720 hc         1 03K       0.075450
     29 HAIA        -6.5160    -1.1290     1.0080 hc         1 03K       0.075450
     30 HAJ         -6.6290    -0.3090    -1.3730 hc         1 03K       0.075450
     31 HAJA        -7.4460     1.2140    -0.8120 hc         1 03K       0.075450
     32 HAT         -5.5080     1.7750     0.6270 hc         1 03K       0.100700
     33 HN3K        -4.7390    -1.7610    -0.7170 hn         1 03K       0.371000
     34 CAN          5.8010    -0.3200    -0.2200 c          1 03K       0.614700
@<TRIPOS>BOND
     1     1    14 1   
     2     1    17 1   
     3     1    20 1   
     4     2    21 1   
     5     2    22 1   
     6     2    34 1   
     7     3     4 1   
     8     3    18 1   
     9     3    33 1   
    10     4    17 2   
    11     5    34 2   
    12     6    14 2   
    13     7     9 ar  
    14     7    15 ar  
    15     7    23 1   
    16     8    10 ar  
    17     8    15 ar  
    18     8    24 1   
    19     9    16 ar  
    20     9    25 1   
    21    10    16 ar  
    22    10    26 1   
    23    11    17 1   
    24    11    18 2   
    25    11    27 1   
    26    12    13 1   
    27    12    19 1   
    28    12    28 1   
    29    12    29 1   
    30    13    19 1   
    31    13    30 1   
    32    13    31 1   
    33    14    16 1   
    34    15    34 1   
    35    18    19 1   
    36    19    32 1   
@<TRIPOS>SUBSTRUCTURE
     1 03K         1 TEMP              0 ****  ****    0 ROOT
