@<TRIPOS>MOLECULE
03K
   34    36     1     0     0
SMALL
No Charge or Current Charge


@<TRIPOS>ATOM
      1 N1L         -0.7610    -0.3930     0.0060 ns         1 03K      -0.467400
      2 N2A          6.3630    -1.4840    -0.0110 nt         1 03K      -0.602000
      3 N3K         -4.0820    -1.2710     0.0280 na         1 03K      -0.002200
      4 N4M         -2.7410    -1.6340     0.0270 nc         1 03K      -0.579800
      5 OAB          6.6750     0.7090    -0.0360 o          1 03K      -0.597100
      6 OAC         -0.3650     1.8550    -0.0200 o          1 03K      -0.575100
      7 CAD          3.8540     1.2900    -0.0310 ca         1 03K      -0.082000
      8 CAE          3.4760    -1.1050    -0.0030 ca         1 03K      -0.082000
      9 CAF          2.4660     1.5090    -0.0280 ca         1 03K      -0.081000
     10 CAG          2.0870    -0.8860    -0.0000 ca         1 03K      -0.081000
     11 CAH         -3.0330     0.6090     0.0040 cd         1 03K      -0.217000
     12 CAI         -6.7700     0.2570     0.7790 cx         1 03K      -0.124400
     13 CAJ         -6.7760     0.2420    -0.7320 cx         1 03K      -0.124400
     14 CAO          0.0640     0.7100    -0.0090 c          1 03K       0.622700
     15 CAP          4.3820    -0.0190    -0.0190 ca         1 03K      -0.131600
     16 CAQ          1.5570     0.4280    -0.0120 ca         1 03K      -0.132600
     17 CAR         -2.1290    -0.4740     0.0120 cd         1 03K       0.381900
     18 CAS         -4.3040     0.1090     0.0150 cc         1 03K      -0.093300
     19 CAT         -5.5960     0.8230     0.0130 cx         1 03K      -0.070400
     20 HN1L        -0.2700    -1.2720     0.0130 hn         1 03K       0.334500
     21 HN2A         7.3620    -1.6300    -0.0130 hn         1 03K       0.315500
     22 HN2B         5.7320    -2.2690     0.0010 hn         1 03K       0.315500
     23 HAD          4.5210     2.1490    -0.0430 ha         1 03K       0.128000
     24 HAE          3.8330    -2.1320     0.0060 ha         1 03K       0.128000
     25 HAF          2.1000     2.5340    -0.0380 ha         1 03K       0.129500
     26 HAG          1.4390    -1.7590     0.0120 ha         1 03K       0.129500
     27 HAH         -2.7850     1.6630    -0.0080 ha         1 03K       0.169000
     28 HAI         -7.4310     0.9610     1.2810 hc         1 03K       0.075450
     29 HAIA        -6.6420    -0.6900     1.2980 hc         1 03K       0.075450
     30 HAJ         -6.6520    -0.7160    -1.2320 hc         1 03K       0.075450
     31 HAJA        -7.4410     0.9350    -1.2430 hc         1 03K       0.075450
     32 HAT         -5.4900     1.9060     0.0010 hc         1 03K       0.100700
     33 HN3K        -4.8140    -1.9800     0.0390 hn         1 03K       0.371000
     34 CAN          5.8840    -0.2210    -0.0230 c          1 03K       0.614700
@<TRIPOS>BOND
     1     1    14 1   
     2     1    17 1   
     3     1    20 1   
     4     2    21 1   
     5     2    22 1   
     6     2    34 1   
     7     3     4 1   
     8     3    18 1   
     9     3    33 1   
    10     4    17 2   
    11     5    34 2   
    12     6    14 2   
    13     7     9 ar  
    14     7    15 ar  
    15     7    23 1   
    16     8    10 ar  
    17     8    15 ar  
    18     8    24 1   
    19     9    16 ar  
    20     9    25 1   
    21    10    16 ar  
    22    10    26 1   
    23    11    17 1   
    24    11    18 2   
    25    11    27 1   
    26    12    13 1   
    27    12    19 1   
    28    12    28 1   
    29    12    29 1   
    30    13    19 1   
    31    13    30 1   
    32    13    31 1   
    33    14    16 1   
    34    15    34 1   
    35    18    19 1   
    36    19    32 1   
@<TRIPOS>SUBSTRUCTURE
     1 03K         1 TEMP              0 ****  ****    0 ROOT
