@<TRIPOS>MOLECULE
03L
   42    44     1     0     0
SMALL
No Charge or Current Charge


@<TRIPOS>ATOM
      1 OAA          4.0450     3.1010     1.4960 o          1 03L      -0.711000
      2 OAB          3.2010     0.1370     1.7590 o          1 03L      -0.613100
      3 OAC          5.9250     2.2570     2.1340 o          1 03L      -0.711000
      4 CAF          6.2880     1.4660    -2.1300 ca         1 03L      -0.133000
      5 CAG          5.3950     0.4690    -2.5400 ca         1 03L      -0.146000
      6 CAH         -2.0480    -2.6690    -2.1550 ca         1 03L      -0.115000
      7 CAI         -1.0590    -3.5100    -1.6250 ca         1 03L      -0.100000
      8 CAJ         -2.0800    -1.3150    -1.7930 ca         1 03L      -0.093000
      9 CAK          6.1510     2.0440    -0.8590 ca         1 03L      -0.092000
     10 CAL          4.3700     0.0440    -1.6810 ca         1 03L      -0.115000
     11 CAM         -5.1550     1.9520    -0.6420 ca         1 03L      -0.119000
     12 CAN         -4.8580     0.6060     1.3620 ca         1 03L      -0.112000
     13 CAO         -3.7840     1.8330    -0.9280 ca         1 03L      -0.059000
     14 CAP         -3.4870     0.4830     1.0810 ca         1 03L       0.157000
     15 CAQ          0.9100    -1.0830     0.6270 c3         1 03L       0.136300
     16 NAR          2.0450    -0.4910    -0.0790 ns         1 03L      -0.493900
     17 CAT          4.9970     2.3470     1.3420 c          1 03L       0.711600
     18 CAU          3.1240     0.1000     0.5380 c          1 03L       0.672700
     19 CAV         -5.6890     1.3370     0.5010 ca         1 03L       0.137000
     20 CAW         -0.1020    -3.0020    -0.7310 ca         1 03L       0.124000
     21 CAX         -2.9460     1.0950    -0.0710 ca         1 03L      -0.132000
     22 CAY         -1.1300    -0.7930    -0.8940 ca         1 03L      -0.114000
     23 CAZ          5.1230     1.6330     0.0170 ca         1 03L      -0.103600
     24 CBA          4.2170     0.6090    -0.3890 ca         1 03L      -0.121600
     25 CBB         -0.1300    -1.6380    -0.3480 ca         1 03L      -0.034300
     26 HAF          7.0820     1.7950    -2.7950 ha         1 03L       0.087000
     27 HAG          5.5000     0.0180    -3.5240 ha         1 03L       0.086000
     28 HAH         -2.7850    -3.0650    -2.8500 ha         1 03L       0.110000
     29 HAI         -1.0290    -4.5580    -1.9110 ha         1 03L       0.123000
     30 HAJ         -2.8440    -0.6690    -2.2190 ha         1 03L       0.116000
     31 HAK          6.8400     2.8290    -0.5520 ha         1 03L       0.130000
     32 HAL          3.7140    -0.7530    -2.0240 ha         1 03L       0.097000
     33 HAM         -5.8020     2.5200    -1.3060 ha         1 03L       0.130000
     34 HAN         -5.2740     0.1360     2.2480 ha         1 03L       0.142000
     35 HAO         -3.3740     2.3090    -1.8170 ha         1 03L       0.133000
     36 HAQ          1.2770    -1.8730     1.2950 h1         1 03L       0.076700
     37 HAQA         0.4560    -0.3220     1.2750 h1         1 03L       0.076700
     38 HNAR         2.0410    -0.4880    -1.0900 hn         1 03L       0.314500
     39 SAS         -1.2050     0.9530    -0.4710 ss         1 03L       0.093000
     40 ClAF        -2.4720    -0.4300     2.1960 cl         1 03L      -0.154000
     41 ClAE         1.1300    -4.1100    -0.1220 cl         1 03L      -0.179000
     42 ClAD        -7.4050     1.4880     0.8570 cl         1 03L      -0.203000
@<TRIPOS>BOND
     1     1    17 1   
     2     2    18 2   
     3     3    17 1   
     4     4     5 ar  
     5     4     9 ar  
     6     4    26 1   
     7     5    10 ar  
     8     5    27 1   
     9     6     7 ar  
    10     6     8 ar  
    11     6    28 1   
    12     7    20 ar  
    13     7    29 1   
    14     8    22 ar  
    15     8    30 1   
    16     9    23 ar  
    17     9    31 1   
    18    10    24 ar  
    19    10    32 1   
    20    11    13 ar  
    21    11    19 ar  
    22    11    33 1   
    23    12    14 ar  
    24    12    19 ar  
    25    12    34 1   
    26    13    21 ar  
    27    13    35 1   
    28    14    21 ar  
    29    14    40 1   
    30    15    16 1   
    31    15    25 1   
    32    15    36 1   
    33    15    37 1   
    34    16    18 1   
    35    16    38 1   
    36    17    23 1   
    37    18    24 1   
    38    19    42 1   
    39    20    25 ar  
    40    20    41 1   
    41    21    39 1   
    42    22    25 ar  
    43    22    39 1   
    44    23    24 ar  
@<TRIPOS>SUBSTRUCTURE
     1 03L         1 TEMP              0 ****  ****    0 ROOT
