@<TRIPOS>MOLECULE
03L
   42    44     1     0     0
SMALL
abcg2


@<TRIPOS>ATOM
      1 OAA          3.5820     2.1800     1.4820 o          1 03L      -0.711000
      2 OAB          3.4680    -0.8580     1.5310 o          1 03L      -0.613100
      3 OAC          5.3760     3.4370     1.0670 o          1 03L      -0.711000
      4 CAF          6.5700     0.8540    -1.9910 ca         1 03L      -0.133000
      5 CAG          5.8810    -0.3370    -2.1770 ca         1 03L      -0.146000
      6 CAH         -1.7580    -2.3020    -2.3340 ca         1 03L      -0.115000
      7 CAI         -0.6280    -2.9620    -1.8760 ca         1 03L      -0.100000
      8 CAJ         -2.0460    -1.0280    -1.8810 ca         1 03L      -0.093000
      9 CAK          6.1710     1.7320    -0.9940 ca         1 03L      -0.092000
     10 CAL          4.8000    -0.6380    -1.3620 ca         1 03L      -0.115000
     11 CAM         -5.5840     1.7740    -0.3660 ca         1 03L      -0.119000
     12 CAN         -5.0430     0.3060     1.4760 ca         1 03L      -0.112000
     13 CAO         -4.2450     1.8060    -0.7170 ca         1 03L      -0.059000
     14 CAP         -3.7070     0.3680     1.1190 ca         1 03L       0.157000
     15 CAQ          0.8210    -0.4460     0.5880 c3         1 03L       0.136300
     16 NAR          2.0530    -0.0090    -0.0220 ns         1 03L      -0.493900
     17 CAT          4.6460     2.4450     0.8910 c          1 03L       0.711600
     18 CAU          3.2690    -0.2120     0.5140 c          1 03L       0.672700
     19 CAV         -5.9690     1.0160     0.7270 ca         1 03L       0.137000
     20 CAW          0.1890    -2.3350    -0.9520 ca         1 03L       0.124000
     21 CAX         -3.2880     1.1070     0.0120 ca         1 03L      -0.132000
     22 CAY         -1.2200    -0.4170    -0.9420 ca         1 03L      -0.114000
     23 CAZ          5.0860     1.4450    -0.1690 ca         1 03L      -0.103600
     24 CBA          4.4020     0.2450    -0.3610 ca         1 03L      -0.121600
     25 CBB         -0.0880    -1.0650    -0.4400 ca         1 03L      -0.034300
     26 HAF          7.4150     1.0990    -2.6230 ha         1 03L       0.087000
     27 HAG          6.1840    -1.0290    -2.9520 ha         1 03L       0.086000
     28 HAH         -2.4020    -2.7800    -3.0590 ha         1 03L       0.110000
     29 HAI         -0.3840    -3.9520    -2.2370 ha         1 03L       0.123000
     30 HAJ         -2.9130    -0.5040    -2.2620 ha         1 03L       0.116000
     31 HAK          6.7030     2.6630    -0.8520 ha         1 03L       0.130000
     32 HAL          4.2630    -1.5680    -1.5080 ha         1 03L       0.097000
     33 HAM         -6.3120     2.3250    -0.9440 ha         1 03L       0.130000
     34 HAN         -5.3550    -0.2760     2.3320 ha         1 03L       0.142000
     35 HAO         -3.9360     2.3800    -1.5810 ha         1 03L       0.133000
     36 HAQ          1.0620    -1.1810     1.3550 h1         1 03L       0.076700
     37 HAQA         0.3180     0.3800     1.0920 h1         1 03L       0.076700
     38 HNAR         1.9860     0.6160    -0.8090 hn         1 03L       0.314500
     39 SAS         -1.5910     1.2530    -0.4440 ss         1 03L       0.093000
     40 CLAF        -2.5650    -0.4940     2.0780 cl         1 03L      -0.154000
     41 CLAE         1.5960    -3.1910    -0.4060 cl         1 03L      -0.179000
     42 CLAD        -7.6350     0.9480     1.1750 cl         1 03L      -0.203000
@<TRIPOS>BOND
     1     1    17 1   
     2     2    18 2   
     3     3    17 1   
     4     4     5 ar  
     5     4     9 ar  
     6     4    26 1   
     7     5    10 ar  
     8     5    27 1   
     9     6     7 ar  
    10     6     8 ar  
    11     6    28 1   
    12     7    20 ar  
    13     7    29 1   
    14     8    22 ar  
    15     8    30 1   
    16     9    23 ar  
    17     9    31 1   
    18    10    24 ar  
    19    10    32 1   
    20    11    13 ar  
    21    11    19 ar  
    22    11    33 1   
    23    12    14 ar  
    24    12    19 ar  
    25    12    34 1   
    26    13    21 ar  
    27    13    35 1   
    28    14    21 ar  
    29    14    40 1   
    30    15    16 1   
    31    15    25 1   
    32    15    36 1   
    33    15    37 1   
    34    16    18 1   
    35    16    38 1   
    36    17    23 1   
    37    18    24 1   
    38    19    42 1   
    39    20    25 ar  
    40    20    41 1   
    41    21    39 1   
    42    22    25 ar  
    43    22    39 1   
    44    23    24 ar  
@<TRIPOS>SUBSTRUCTURE
     1 03L         1 TEMP              0 ****  ****    0 ROOT
