@<TRIPOS>MOLECULE
03M
   42    45     1     0     0
SMALL
No Charge or Current Charge


@<TRIPOS>ATOM
      1 C4          -3.4200     1.3920     0.6040 ca         1 03M      -0.058000
      2 C6          -2.7150    -2.1900     0.0760 cc         1 03M      -0.129100
      3 C7          -2.3010    -0.9430     0.5270 cd         1 03M      -0.121200
      4 C8          -3.3540     0.0230     0.3210 ca         1 03M      -0.077800
      5 C10         -1.0200    -0.6440     1.1670 cf         1 03M      -0.080000
      6 N12          0.5720    -2.0760    -0.0820 ns         1 03M      -0.530600
      7 C13          1.9010    -2.3440    -0.1340 c          1 03M       0.613000
      8 C15          1.5100    -0.7670     1.5200 c          1 03M       0.576200
      9 C20          5.1280    -0.7140    -0.9460 ca         1 03M      -0.076000
     10 C21          5.7830     0.2820    -1.6940 ca         1 03M      -0.135000
     11 C22          5.9200     1.5770    -1.1690 ca         1 03M       0.141000
     12 C24          4.7470     0.8860     0.8520 ca         1 03M      -0.109000
     13 C1          -4.6100     2.0690     0.2700 ca         1 03M      -0.119000
     14 C2          -5.6870     1.3760    -0.3320 ca         1 03M       0.135000
     15 C3          -5.5930    -0.0130    -0.6120 ca         1 03M      -0.075300
     16 N5          -4.0200    -1.9840    -0.4180 na         1 03M      -0.207700
     17 C9          -4.3890    -0.6550    -0.2630 ca         1 03M      -0.045200
     18 C11          0.2200    -1.1400     0.8810 cc         1 03M      -0.092600
     19 N14          2.4500    -1.5440     0.8500 n          1 03M      -0.387400
     20 O17          1.7230     0.0300     2.4230 o          1 03M      -0.503000
     21 C18          3.8910    -1.4930     1.1350 c3         1 03M       0.167300
     22 C19          4.6090    -0.4170     0.3310 ca         1 03M      -0.110300
     23 C23          5.4010     1.8790     0.1040 ca         1 03M       0.127000
     24 F25          5.5260     3.1260     0.6150 f          1 03M      -0.160000
     25 C27         -6.7500    -0.7680    -1.2630 c3         1 03M      -0.039800
     26 Cl          -7.1500     2.2790    -0.7270 cl         1 03M      -0.206000
     27 H4          -2.5850     1.9180     1.0630 ha         1 03M       0.126000
     28 H6          -2.2260    -3.1600     0.0860 h4         1 03M       0.212000
     29 H10         -1.0340     0.1350     1.9330 ha         1 03M       0.208000
     30 H20          5.0210    -1.7150    -1.3600 ha         1 03M       0.135000
     31 H21          6.1830     0.0510    -2.6790 ha         1 03M       0.137000
     32 H24          4.3470     1.1330     1.8330 ha         1 03M       0.147000
     33 H1          -4.7010     3.1330     0.4740 ha         1 03M       0.132000
     34 H18          4.0390    -1.3090     2.2080 h1         1 03M       0.075700
     35 H18A         4.3380    -2.4720     0.9160 h1         1 03M       0.075700
     36 H27         -6.9910    -0.3440    -2.2450 hc         1 03M       0.047033
     37 H27A        -6.5260    -1.8300    -1.4140 hc         1 03M       0.047033
     38 H27B        -7.6520    -0.7120    -0.6420 hc         1 03M       0.047033
     39 HN5         -4.6110    -2.7050    -0.8190 hn         1 03M       0.357000
     40 H14         -0.0630    -2.5170    -0.7400 hn         1 03M       0.461000
     41 O16          2.4670    -3.1150    -0.8880 o          1 03M      -0.542000
     42 F26          6.5500     2.5290    -1.8950 f          1 03M      -0.160000
@<TRIPOS>BOND
     1     1     4 ar  
     2     1    13 ar  
     3     1    27 1   
     4     2     3 2   
     5     2    16 1   
     6     2    28 1   
     7     3     4 1   
     8     3     5 1   
     9     4    17 ar  
    10     5    18 2   
    11     5    29 1   
    12     6     7 1   
    13     6    18 1   
    14     6    40 1   
    15     7    19 1   
    16     7    41 2   
    17     8    18 1   
    18     8    19 1   
    19     8    20 2   
    20     9    10 ar  
    21     9    22 ar  
    22     9    30 1   
    23    10    11 ar  
    24    10    31 1   
    25    11    23 ar  
    26    11    42 1   
    27    12    22 ar  
    28    12    23 ar  
    29    12    32 1   
    30    13    14 ar  
    31    13    33 1   
    32    14    15 ar  
    33    14    26 1   
    34    15    17 ar  
    35    15    25 1   
    36    16    17 1   
    37    16    39 1   
    38    19    21 1   
    39    21    22 1   
    40    21    34 1   
    41    21    35 1   
    42    23    24 1   
    43    25    36 1   
    44    25    37 1   
    45    25    38 1   
@<TRIPOS>SUBSTRUCTURE
     1 03M         1 TEMP              0 ****  ****    0 ROOT
