@<TRIPOS>MOLECULE
03M
   42    45     1     0     0
SMALL
bcc


@<TRIPOS>ATOM
      1 C4          -3.7070     1.3180     0.9440 ca         1 03M      -0.076000
      2 C6          -2.5780    -1.7960    -0.5350 cc         1 03M      -0.079100
      3 C7          -2.2210    -0.6910     0.2100 cd         1 03M      -0.121200
      4 C8          -3.4160     0.1030     0.3220 ca         1 03M      -0.077800
      5 C10         -0.9590    -0.3500     0.8030 cf         1 03M      -0.030000
      6 N12          0.6300    -1.9930    -0.1590 ns         1 03M      -0.484100
      7 C13          1.9620    -2.2500    -0.0350 c          1 03M       0.822500
      8 C15          1.4610    -0.5070     1.3550 c          1 03M       0.718700
      9 C20          5.3640    -0.9880    -0.6340 ca         1 03M      -0.094000
     10 C21          6.1160    -0.1840    -1.4800 ca         1 03M      -0.153000
     11 C22          6.1630     1.1750    -1.2520 ca         1 03M       0.105900
     12 C24          4.7210     0.9350     0.6520 ca         1 03M      -0.127000
     13 C1          -4.9900     1.8140     0.8570 ca         1 03M      -0.137000
     14 C2          -5.9760     1.1080     0.1550 ca         1 03M       0.043400
     15 C3          -5.7480    -0.1010    -0.4810 ca         1 03M      -0.075300
     16 N5          -3.8840    -1.7200    -0.8760 na         1 03M      -0.157400
     17 C9          -4.4360    -0.5730    -0.3720 ca         1 03M      -0.045200
     18 C11          0.2410    -0.9260     0.6400 cc         1 03M      -0.092600
     19 N14          2.4440    -1.3610     0.9180 n          1 03M      -0.521400
     20 O17          1.6000     0.3860     2.1630 o          1 03M      -0.578500
     21 C18          3.8310    -1.3130     1.3340 c3         1 03M       0.167300
     22 C19          4.6640    -0.4400     0.4330 ca         1 03M      -0.110300
     23 C23          5.4680     1.7290    -0.1900 ca         1 03M       0.091900
     24 F25          5.5370     3.0490     0.0100 f          1 03M      -0.124900
     25 C27         -6.8090    -0.8410    -1.2350 c3         1 03M      -0.039800
     26 CL          -7.5690     1.8030     0.0840 cl         1 03M      -0.114400
     27 H4          -2.9520     1.8700     1.4890 ha         1 03M       0.144000
     28 H6          -2.0080    -2.6600    -0.8340 h4         1 03M       0.162000
     29 H10         -0.9640     0.4940     1.4840 ha         1 03M       0.158000
     30 H20          5.3300    -2.0540    -0.8140 ha         1 03M       0.153000
     31 H21          6.6630    -0.6080    -2.3110 ha         1 03M       0.155000
     32 H24          4.1870     1.3910     1.4780 ha         1 03M       0.165000
     33 H1          -5.2430     2.7530     1.3290 ha         1 03M       0.150000
     34 H18          3.8550    -0.9490     2.3600 h1         1 03M       0.075700
     35 H18A         4.2160    -2.3310     1.3450 h1         1 03M       0.075700
     36 H27         -7.1050    -0.2970    -2.1330 hc         1 03M       0.047033
     37 H27A        -6.4780    -1.8300    -1.5480 hc         1 03M       0.047033
     38 H27B        -7.7050    -0.9770    -0.6290 hc         1 03M       0.047033
     39 HN5         -4.3620    -2.4220    -1.4160 hn         1 03M       0.306700
     40 H14          0.0860    -2.4110    -0.8950 hn         1 03M       0.347500
     41 O16          2.6150    -3.0820    -0.6210 o          1 03M      -0.617500
     42 F26          6.8830     1.9730    -2.0460 f          1 03M      -0.124900
@<TRIPOS>BOND
     1     1     4 ar  
     2     1    13 ar  
     3     1    27 1   
     4     2     3 2   
     5     2    16 1   
     6     2    28 1   
     7     3     4 1   
     8     3     5 1   
     9     4    17 ar  
    10     5    18 2   
    11     5    29 1   
    12     6     7 1   
    13     6    18 1   
    14     6    40 1   
    15     7    19 1   
    16     7    41 2   
    17     8    18 1   
    18     8    19 1   
    19     8    20 2   
    20     9    10 ar  
    21     9    22 ar  
    22     9    30 1   
    23    10    11 ar  
    24    10    31 1   
    25    11    23 ar  
    26    11    42 1   
    27    12    22 ar  
    28    12    23 ar  
    29    12    32 1   
    30    13    14 ar  
    31    13    33 1   
    32    14    15 ar  
    33    14    26 1   
    34    15    17 ar  
    35    15    25 1   
    36    16    17 1   
    37    16    39 1   
    38    19    21 1   
    39    21    22 1   
    40    21    34 1   
    41    21    35 1   
    42    23    24 1   
    43    25    36 1   
    44    25    37 1   
    45    25    38 1   
@<TRIPOS>SUBSTRUCTURE
     1 03M         1 TEMP              0 ****  ****    0 ROOT
