@<TRIPOS>MOLECULE
03N
   27    27     1     0     0
SMALL
abcg2


@<TRIPOS>ATOM
      1 N24          4.0090    -0.6070    -0.0230 n8         1 03N      -0.995200
      2 C25          3.0800     0.4500    -0.3970 c3         1 03N       0.154800
      3 C26          1.7120     0.2610     0.2460 c6         1 03N      -0.062700
      4 C27          1.0390    -1.0410    -0.1770 c6         1 03N      -0.082900
      5 C28         -0.3620    -1.1790     0.4020 c6         1 03N       0.216800
      6 N29         -1.1810    -0.0300     0.0610 nh         1 03N      -0.754600
      7 C30         -0.6010     1.2310     0.5020 c6         1 03N       0.216800
      8 C31          0.7860     1.4260    -0.0870 c6         1 03N      -0.082900
      9 C32         -2.5470    -0.2050     0.0240 c2         1 03N       0.794100
     10 N33         -3.2670     0.9290    -0.2980 nv         1 03N      -1.062200
     11 N34         -3.0660    -1.3470     0.2950 n2         1 03N      -0.893100
     12 HN24         3.7600    -1.4630    -0.5020 hn         1 03N       0.392000
     13 H125         3.4970     1.4010    -0.0530 h1         1 03N       0.026200
     14 H225         2.9440     0.5510    -1.4850 h1         1 03N       0.026200
     15 H26          1.8530     0.2350     1.3350 hc         1 03N       0.063700
     16 H127         0.9850    -1.0880    -1.2710 hc         1 03N       0.045700
     17 H227         1.6230    -1.9050     0.1510 hc         1 03N       0.045700
     18 H128        -0.8390    -2.0760     0.0150 h1         1 03N       0.048200
     19 H228        -0.2990    -1.3000     1.4930 h1         1 03N       0.048200
     20 H130        -1.2360     2.0660     0.2160 h1         1 03N       0.048200
     21 H230        -0.5360     1.2500     1.6000 h1         1 03N       0.048200
     22 H131         1.2000     2.3630     0.2960 hc         1 03N       0.045700
     23 H231         0.7020     1.5350    -1.1740 hc         1 03N       0.045700
     24 H133        -2.8530     1.5470    -0.9780 hn         1 03N       0.450000
     25 H233        -4.2390     0.7580    -0.5050 hn         1 03N       0.450000
     26 H134        -4.0620    -1.3370     0.1090 hn         1 03N       0.375400
     27 H2           4.9330    -0.3730    -0.3610 hn         1 03N       0.392000
@<TRIPOS>BOND
     1     1     2 1   
     2     1    12 1   
     3     1    27 1   
     4     2     3 1   
     5     2    13 1   
     6     2    14 1   
     7     3     4 1   
     8     3     8 1   
     9     3    15 1   
    10     4     5 1   
    11     4    16 1   
    12     4    17 1   
    13     5     6 1   
    14     5    18 1   
    15     5    19 1   
    16     6     7 1   
    17     6     9 1   
    18     7     8 1   
    19     7    20 1   
    20     7    21 1   
    21     8    22 1   
    22     8    23 1   
    23     9    10 1   
    24     9    11 2   
    25    10    24 1   
    26    10    25 1   
    27    11    26 1   
@<TRIPOS>SUBSTRUCTURE
     1 03N         1 TEMP              0 ****  ****    0 ROOT
