@<TRIPOS>MOLECULE
03N
   27    27     1     0     0
SMALL
No Charge or Current Charge


@<TRIPOS>ATOM
      1 N24          4.0670    -0.6150    -0.0720 n8         1 03N      -0.995200
      2 C25          3.1170     0.4860    -0.3260 c3         1 03N       0.154800
      3 C26          1.6960     0.2430     0.2640 c6         1 03N      -0.062700
      4 C27          0.9840    -0.9860    -0.3610 c6         1 03N      -0.082900
      5 C28         -0.4390    -1.1750     0.2210 c6         1 03N       0.216800
      6 N29         -1.2730     0.0500     0.0720 nh         1 03N      -0.754600
      7 C30         -0.6250     1.2590     0.6500 c6         1 03N       0.216800
      8 C31          0.7940     1.4890     0.0750 c6         1 03N      -0.082900
      9 C32         -2.6060    -0.0640     0.2060 c2         1 03N       0.794100
     10 N33         -3.2490     0.5400    -0.7670 nv         1 03N      -1.062200
     11 N34         -3.1570    -0.7530     1.0910 n2         1 03N      -0.893100
     12 HN24         3.7330    -1.4580    -0.5520 hn         1 03N       0.392000
     13 H125         3.5330     1.4020     0.1150 h1         1 03N       0.026200
     14 H225         3.0360     0.6350    -1.4110 h1         1 03N       0.026200
     15 H26          1.8280     0.0690     1.3420 hc         1 03N       0.063700
     16 H127         0.9160    -0.8650    -1.4510 hc         1 03N       0.045700
     17 H227         1.5660    -1.9000    -0.1830 hc         1 03N       0.045700
     18 H128        -0.9140    -2.0170    -0.3050 h1         1 03N       0.048200
     19 H228        -0.3680    -1.4580     1.2830 h1         1 03N       0.048200
     20 H130        -1.2310     2.1510     0.4330 h1         1 03N       0.048200
     21 H230        -0.5720     1.1680     1.7460 h1         1 03N       0.048200
     22 H131         1.2470     2.3610     0.5640 hc         1 03N       0.045700
     23 H231         0.7160     1.7350    -0.9930 hc         1 03N       0.045700
     24 H133        -2.5710     0.8540    -1.4450 hn         1 03N       0.450000
     25 H233        -3.9830    -0.0290    -1.1640 hn         1 03N       0.450000
     26 H134        -4.1680    -0.6660     0.9470 hn         1 03N       0.375400
     27 H2           4.9550    -0.4050    -0.5430 hn         1 03N       0.392000
@<TRIPOS>BOND
     1     1     2 1   
     2     1    12 1   
     3     1    27 1   
     4     2     3 1   
     5     2    13 1   
     6     2    14 1   
     7     3     4 1   
     8     3     8 1   
     9     3    15 1   
    10     4     5 1   
    11     4    16 1   
    12     4    17 1   
    13     5     6 1   
    14     5    18 1   
    15     5    19 1   
    16     6     7 1   
    17     6     9 1   
    18     7     8 1   
    19     7    20 1   
    20     7    21 1   
    21     8    22 1   
    22     8    23 1   
    23     9    10 1   
    24     9    11 2   
    25    10    24 1   
    26    10    25 1   
    27    11    26 1   
@<TRIPOS>SUBSTRUCTURE
     1 03N         1 TEMP              0 ****  ****    0 ROOT
