@<TRIPOS>MOLECULE
03P
   63    66     1     0     0
SMALL
abcg2


@<TRIPOS>ATOM
      1 N1           1.9930    -3.8160    -0.2070 nb         1 03P      -0.263000
      2 N3           4.7330     1.5320    -0.2000 ns         1 03P      -0.494900
      3 C4           6.3720    -2.8720    -0.4800 cc         1 03P      -0.151100
      4 C5           6.0580    -4.1530    -0.1190 cd         1 03P      -0.352800
      5 C7           4.8890     0.1420     0.1560 c3         1 03P       0.074000
      6 C8           3.6830     1.9760    -0.8950 c          1 03P       0.606100
      7 C10          0.7830    -1.3250    -0.7440 ca         1 03P       0.324000
      8 C13         -1.8860    -0.5400    -0.5800 ca         1 03P       0.071100
      9 C15          0.2020    -0.5680    -1.7590 ca         1 03P      -0.127000
     10 C17         -2.5580     1.8260     0.7290 ca         1 03P      -0.149000
     11 C20         -5.2640     2.3930     0.9830 ca         1 03P      -0.165300
     12 C21         -4.8630     1.2460     0.3140 ca         1 03P      -0.090000
     13 C22         -6.7280     2.6560     1.1530 c3         1 03P       0.356300
     14 C24          1.7500     3.7550     0.5630 c3         1 03P      -0.106100
     15 F2          -7.2280     1.9950     2.2080 f          1 03P      -0.113333
     16 F           -6.9910     3.9520     1.3500 f          1 03P      -0.113333
     17 F1          -7.4390     2.2680     0.0870 f          1 03P      -0.113333
     18 C19         -4.3280     3.2600     1.5340 ca         1 03P      -0.096000
     19 C18         -2.9810     2.9660     1.3980 ca         1 03P      -0.084000
     20 C16         -3.5080     0.9680     0.1880 ca         1 03P       0.135100
     21 O1          -3.1980    -0.1680    -0.4970 os         1 03P      -0.233200
     22 C12         -1.3110    -1.3090     0.4250 ca         1 03P       0.118000
     23 CL          -2.2640    -1.7480     1.7950 cl         1 03P      -0.175000
     24 C11          0.0130    -1.7020     0.3540 ca         1 03P      -0.103000
     25 C14         -1.1200    -0.1700    -1.6710 ca         1 03P      -0.090000
     26 C1           2.7580    -2.7740    -0.5020 ca         1 03P       0.407900
     27 C            2.5600    -4.9790     0.1180 ca         1 03P       0.142900
     28 C3           4.1570    -2.9470    -0.4640 ca         1 03P      -0.211200
     29 C2           4.6420    -4.2190    -0.1040 ca         1 03P       0.125800
     30 N            3.8380    -5.2580     0.1920 nb         1 03P      -0.167000
     31 N2           5.2460    -2.1380    -0.6960 na         1 03P      -0.073700
     32 O            2.8150     1.2060    -1.3170 o          1 03P      -0.655100
     33 C9           3.5940     3.4600    -1.1400 c3         1 03P      -0.193400
     34 C23          2.1790     4.0220    -0.8810 c3         1 03P       0.203000
     35 O2           1.2470     3.4610    -1.7860 oh         1 03P      -0.661000
     36 C25          2.1970     5.5220    -1.1460 c3         1 03P      -0.106100
     37 HN3          5.4310     2.1890     0.1110 hn         1 03P       0.326500
     38 H4           7.3410    -2.4160    -0.6090 h4         1 03P       0.212000
     39 H5           6.7530    -4.9460     0.1040 ha         1 03P       0.222000
     40 H6           4.6050    -0.5580    -1.8940 h1         1 03P       0.069700
     41 H6A          6.2680    -0.4880    -1.3800 h1         1 03P       0.069700
     42 H7           5.6720     0.0760     0.9090 h1         1 03P       0.068200
     43 H7A          3.9700    -0.2180     0.6240 h1         1 03P       0.068200
     44 H15          0.7880    -0.2810    -2.6220 ha         1 03P       0.131000
     45 H17         -1.5000     1.6250     0.6320 ha         1 03P       0.130000
     46 H21         -5.5820     0.5600    -0.1180 ha         1 03P       0.146000
     47 H24          2.4690     4.1640     1.2740 hc         1 03P       0.044867
     48 H24A         0.7830     4.2190     0.7630 hc         1 03P       0.044867
     49 H24B         1.6470     2.6870     0.7670 hc         1 03P       0.044867
     50 H19         -4.6280     4.1560     2.0570 ha         1 03P       0.131000
     51 H18         -2.2420     3.6370     1.8160 ha         1 03P       0.117000
     52 H11          0.4460    -2.2760     1.1610 ha         1 03P       0.148000
     53 H14         -1.5650     0.4240    -2.4590 ha         1 03P       0.136000
     54 HN4          2.7000    -0.8120    -1.1440 hn         1 03P       0.528000
     55 H            1.8690    -5.7840     0.3470 h5         1 03P       0.048100
     56 H9           4.3220     3.9970    -0.5290 hc         1 03P       0.072200
     57 H9A          3.8650     3.6440    -2.1850 hc         1 03P       0.072200
     58 HO2          1.3580     2.5010    -1.7420 ho         1 03P       0.469000
     59 H25          2.8860     6.0260    -0.4690 hc         1 03P       0.044867
     60 H25A         2.5110     5.7380    -2.1690 hc         1 03P       0.044867
     61 H25B         1.2050     5.9500    -0.9940 hc         1 03P       0.044867
     62 C6           5.2620    -0.7340    -1.0430 c3         1 03P       0.053600
     63 N4           2.1530    -1.6030    -0.8280 nu         1 03P      -0.965900
@<TRIPOS>BOND
     1     1    26 ar  
     2     1    27 ar  
     3     2     5 1   
     4     2     6 1   
     5     2    37 1   
     6     3     4 2   
     7     3    31 1   
     8     3    38 1   
     9     4    29 1   
    10     4    39 1   
    11     5    42 1   
    12     5    43 1   
    13     5    62 1   
    14     6    32 2   
    15     6    33 1   
    16     7     9 ar  
    17     7    24 ar  
    18     7    63 1   
    19     8    21 1   
    20     8    22 ar  
    21     8    25 ar  
    22     9    25 ar  
    23     9    44 1   
    24    10    19 ar  
    25    10    20 ar  
    26    10    45 1   
    27    11    12 ar  
    28    11    13 1   
    29    11    18 ar  
    30    12    20 ar  
    31    12    46 1   
    32    13    15 1   
    33    13    16 1   
    34    13    17 1   
    35    14    34 1   
    36    14    47 1   
    37    14    48 1   
    38    14    49 1   
    39    18    19 ar  
    40    18    50 1   
    41    19    51 1   
    42    20    21 1   
    43    22    23 1   
    44    22    24 ar  
    45    24    52 1   
    46    25    53 1   
    47    26    28 ar  
    48    26    63 1   
    49    27    30 ar  
    50    27    55 1   
    51    28    29 ar  
    52    28    31 1   
    53    29    30 ar  
    54    31    62 1   
    55    33    34 1   
    56    33    56 1   
    57    33    57 1   
    58    34    35 1   
    59    34    36 1   
    60    35    58 1   
    61    36    59 1   
    62    36    60 1   
    63    36    61 1   
    64    40    62 1   
    65    41    62 1   
    66    54    63 1   
@<TRIPOS>SUBSTRUCTURE
     1 03P         1 TEMP              0 ****  ****    0 ROOT
