@<TRIPOS>MOLECULE
03P
   63    66     1     0     0
SMALL
No Charge or Current Charge


@<TRIPOS>ATOM
      1 N1           2.0670    -3.9400    -0.3250 nb         1 03P      -0.263000
      2 N3           4.4880     1.5030    -0.0890 ns         1 03P      -0.494900
      3 C4           6.5780    -2.8750    -0.2940 cc         1 03P      -0.151100
      4 C5           6.1690    -4.1620     0.0220 cd         1 03P      -0.352800
      5 C7           4.7630     0.1040     0.2670 c3         1 03P       0.074000
      6 C8           3.5800     1.9060    -1.0400 c          1 03P       0.606100
      7 C10          0.9100    -1.2870    -0.9000 ca         1 03P       0.324000
      8 C13         -1.7410    -0.3390    -0.7860 ca         1 03P       0.071100
      9 C15          0.3770    -0.5380    -1.9630 ca         1 03P      -0.127000
     10 C17         -2.3930     2.1730     0.4570 ca         1 03P      -0.149000
     11 C20         -5.1210     2.5820     1.0900 ca         1 03P      -0.165300
     12 C21         -4.7190     1.4620     0.3260 ca         1 03P      -0.090000
     13 C22         -6.5980     2.7940     1.4440 c3         1 03P       0.356300
     14 C24          1.5150     3.4040     0.6440 c3         1 03P      -0.106100
     15 F2          -6.9210     2.1700     2.5990 f          1 03P      -0.113333
     16 F           -6.9090     4.1010     1.6000 f          1 03P      -0.113333
     17 F1          -7.4290     2.3120     0.4900 f          1 03P      -0.113333
     18 C19         -4.1340     3.4860     1.5420 ca         1 03P      -0.096000
     19 C18         -2.7810     3.2850     1.2230 ca         1 03P      -0.084000
     20 C16         -3.3660     1.2550     0.0120 ca         1 03P       0.135100
     21 O1          -3.0260     0.1500    -0.7390 os         1 03P      -0.233200
     22 C12         -1.2140    -1.0960     0.2810 ca         1 03P       0.118000
     23 Cl          -2.1880    -1.4560     1.7070 cl         1 03P      -0.175000
     24 C11          0.1070    -1.5670     0.2200 ca         1 03P      -0.103000
     25 C14         -0.9480    -0.0680    -1.9120 ca         1 03P      -0.090000
     26 C1           2.8760    -2.8810    -0.5620 ca         1 03P       0.407900
     27 C            2.6520    -5.1100     0.0400 ca         1 03P       0.142900
     28 C3           4.2750    -3.0370    -0.4280 ca         1 03P      -0.211200
     29 C2           4.7410    -4.2680    -0.0560 ca         1 03P       0.125800
     30 N            3.9760    -5.3400     0.1930 nb         1 03P      -0.167000
     31 N2           5.3800    -2.1820    -0.5690 na         1 03P      -0.073700
     32 O            2.9830     1.1140    -1.7530 o          1 03P      -0.655100
     33 C9           3.3460     3.4070    -1.1530 c3         1 03P      -0.193400
     34 C23          1.8880     3.7950    -0.8060 c3         1 03P       0.203000
     35 O2           1.0280     3.0800    -1.6880 oh         1 03P      -0.661000
     36 C25          1.6530     5.3030    -1.0390 c3         1 03P      -0.106100
     37 HN3          4.9400     2.2350     0.4480 hn         1 03P       0.326500
     38 H4           7.5620    -2.4140    -0.3390 h4         1 03P       0.212000
     39 H5           6.8370    -4.9760     0.2940 ha         1 03P       0.222000
     40 H6           4.6270    -0.6660    -1.7900 h1         1 03P       0.069700
     41 H6A          6.2650    -0.3940    -1.2090 h1         1 03P       0.069700
     42 H7           5.5130     0.0860     1.0690 h1         1 03P       0.068200
     43 H7A          3.8430    -0.3330     0.6750 h1         1 03P       0.068200
     44 H15          0.9890    -0.3230    -2.8340 ha         1 03P       0.131000
     45 H17         -1.3440     2.0370     0.2120 ha         1 03P       0.130000
     46 H21         -5.4540     0.7410    -0.0240 ha         1 03P       0.146000
     47 H24          2.1900     3.8860     1.3610 hc         1 03P       0.044867
     48 H24A         0.4920     3.7200     0.8800 hc         1 03P       0.044867
     49 H24B         1.5720     2.3190     0.7970 hc         1 03P       0.044867
     50 H19         -4.4120     4.3500     2.1440 ha         1 03P       0.131000
     51 H18         -2.0310     3.9920     1.5720 ha         1 03P       0.117000
     52 H11          0.5140    -2.1300     1.0520 ha         1 03P       0.148000
     53 H14         -1.3530     0.5150    -2.7350 ha         1 03P       0.136000
     54 HN4          2.8500    -1.0090    -1.3900 hn         1 03P       0.528000
     55 H            1.9870    -5.9500     0.2290 h5         1 03P       0.048100
     56 H9           4.0380     3.9480    -0.4980 hc         1 03P       0.072200
     57 H9A          3.5520     3.7000    -2.1890 hc         1 03P       0.072200
     58 HO2          1.4980     2.2320    -1.8830 ho         1 03P       0.469000
     59 H25          2.2930     5.9020    -0.3800 hc         1 03P       0.044867
     60 H25A         1.8780     5.5800    -2.0760 hc         1 03P       0.044867
     61 H25B         0.6090     5.5720    -0.8360 hc         1 03P       0.044867
     62 C6           5.2730    -0.7570    -0.9120 c3         1 03P       0.053600
     63 N4           2.2400    -1.7050    -0.9570 nu         1 03P      -0.965900
@<TRIPOS>BOND
     1     1    26 ar  
     2     1    27 ar  
     3     2     5 1   
     4     2     6 1   
     5     2    37 1   
     6     3     4 2   
     7     3    31 1   
     8     3    38 1   
     9     4    29 1   
    10     4    39 1   
    11     5    42 1   
    12     5    43 1   
    13     5    62 1   
    14     6    32 2   
    15     6    33 1   
    16     7     9 ar  
    17     7    24 ar  
    18     7    63 1   
    19     8    21 1   
    20     8    22 ar  
    21     8    25 ar  
    22     9    25 ar  
    23     9    44 1   
    24    10    19 ar  
    25    10    20 ar  
    26    10    45 1   
    27    11    12 ar  
    28    11    13 1   
    29    11    18 ar  
    30    12    20 ar  
    31    12    46 1   
    32    13    15 1   
    33    13    16 1   
    34    13    17 1   
    35    14    34 1   
    36    14    47 1   
    37    14    48 1   
    38    14    49 1   
    39    18    19 ar  
    40    18    50 1   
    41    19    51 1   
    42    20    21 1   
    43    22    23 1   
    44    22    24 ar  
    45    24    52 1   
    46    25    53 1   
    47    26    28 ar  
    48    26    63 1   
    49    27    30 ar  
    50    27    55 1   
    51    28    29 ar  
    52    28    31 1   
    53    29    30 ar  
    54    31    62 1   
    55    33    34 1   
    56    33    56 1   
    57    33    57 1   
    58    34    35 1   
    59    34    36 1   
    60    35    58 1   
    61    36    59 1   
    62    36    60 1   
    63    36    61 1   
    64    40    62 1   
    65    41    62 1   
    66    54    63 1   
@<TRIPOS>SUBSTRUCTURE
     1 03P         1 TEMP              0 ****  ****    0 ROOT
