@<TRIPOS>MOLECULE
03Q
   53    56     1     0     0
SMALL
No Charge or Current Charge


@<TRIPOS>ATOM
      1 O1          -3.3890     3.9470    -0.2470 oh         1 03Q      -0.711000
      2 C2          -4.6940     3.8220    -0.8440 c3         1 03Q       0.163600
      3 C3          -4.9540     2.3800    -1.3540 c3         1 03Q       0.161600
      4 O4          -5.0320     1.4840    -0.2270 os         1 03Q      -0.451000
      5 C5          -5.2700     0.1100    -0.5720 c3         1 03Q       0.133600
      6 C6          -5.2730    -0.7040     0.7370 c3         1 03Q       0.072600
      7 N7          -5.0660    -2.1470     0.5260 na         1 03Q      -0.071700
      8 C8          -6.0630    -3.1430     0.5960 cc         1 03Q      -0.143100
      9 C9          -5.3770    -4.3340     0.3960 cd         1 03Q      -0.354800
     10 C10         -3.9790    -4.0820     0.2010 ca         1 03Q       0.122800
     11 N11         -2.9980    -4.9670    -0.0220 nb         1 03Q      -0.158000
     12 C12         -1.7780    -4.4000    -0.1710 ca         1 03Q       0.137900
     13 N13         -1.4860    -3.0740    -0.1220 nb         1 03Q      -0.257000
     14 C14         -2.5070    -2.2160     0.0950 ca         1 03Q       0.390900
     15 N15         -2.2050    -0.8530     0.1440 nu         1 03Q      -0.944900
     16 C16         -1.0500    -0.0800    -0.1360 ca         1 03Q       0.227000
     17 C17          0.0810    -0.5300    -0.8870 ca         1 03Q       0.391900
     18 N18          1.1760     0.2320    -1.1480 nb         1 03Q      -0.719000
     19 C19          1.1930     1.4950    -0.6590 ca         1 03Q       0.570300
     20 O20          2.2850     2.2960    -0.9210 os         1 03Q      -0.355400
     21 C21          3.5670     1.8100    -1.0520 ca         1 03Q       0.108100
     22 C22          4.3920     2.3420    -2.0560 ca         1 03Q      -0.075000
     23 C23          5.7140     1.8870    -2.1930 ca         1 03Q      -0.111000
     24 C24          6.2170     0.9040    -1.3230 ca         1 03Q      -0.059000
     25 C25          5.4010     0.3640    -0.3040 ca         1 03Q      -0.189300
     26 C26          4.0750     0.8350    -0.1690 ca         1 03Q      -0.057000
     27 C27          5.9490    -0.6940     0.6600 c3         1 03Q       0.357300
     28 F28          6.4650    -0.1250     1.7720 f          1 03Q      -0.112667
     29 F29          4.9920    -1.5600     1.0680 f          1 03Q      -0.112667
     30 F30          6.9310    -1.4400     0.1050 f          1 03Q      -0.112667
     31 C31          0.1120     2.0390     0.0760 ca         1 03Q       0.062000
     32 Cl32         0.1620     3.6970     0.6870 cl         1 03Q      -0.158000
     33 C33         -1.0180     1.2450     0.3360 ca         1 03Q      -0.090000
     34 C34         -3.8110    -2.7270     0.2790 ca         1 03Q      -0.203200
     35 HO1         -3.3170     4.8690     0.0930 ho         1 03Q       0.505000
     36 H2          -5.4760     4.0880    -0.1190 h1         1 03Q       0.028200
     37 H2A         -4.7850     4.5120    -1.6930 h1         1 03Q       0.028200
     38 H3          -5.8960     2.3670    -1.9180 h1         1 03Q       0.034200
     39 H3A         -4.1450     2.0830    -2.0360 h1         1 03Q       0.034200
     40 H5          -6.2320    -0.0130    -1.0860 h1         1 03Q       0.039200
     41 H5A         -4.4780    -0.2570    -1.2390 h1         1 03Q       0.039200
     42 H6          -4.5050    -0.3310     1.4240 h1         1 03Q       0.068700
     43 H6A         -6.2400    -0.5590     1.2340 h1         1 03Q       0.068700
     44 H8          -7.1130    -2.9300     0.7800 h4         1 03Q       0.217000
     45 H9          -5.8360    -5.3200     0.3900 ha         1 03Q       0.223000
     46 H12         -0.9450    -5.0770    -0.3500 h5         1 03Q       0.050100
     47 HN15        -2.9930    -0.2940     0.4600 hn         1 03Q       0.498000
     48 H17          0.1070    -1.5290    -1.3150 h4         1 03Q       0.047100
     49 H22          4.0050     3.1060    -2.7260 ha         1 03Q       0.132000
     50 H23          6.3520     2.3000    -2.9710 ha         1 03Q       0.123000
     51 H24          7.2470     0.5710    -1.4410 ha         1 03Q       0.133000
     52 H26          3.4390     0.4500     0.6250 ha         1 03Q       0.143000
     53 H33         -1.8510     1.6540     0.9000 ha         1 03Q       0.135000
@<TRIPOS>BOND
     1     1     2 1   
     2     1    35 1   
     3     2     3 1   
     4     2    36 1   
     5     2    37 1   
     6     3     4 1   
     7     3    38 1   
     8     3    39 1   
     9     4     5 1   
    10     5     6 1   
    11     5    40 1   
    12     5    41 1   
    13     6     7 1   
    14     6    42 1   
    15     6    43 1   
    16     7     8 1   
    17     7    34 1   
    18     8     9 2   
    19     8    44 1   
    20     9    10 1   
    21     9    45 1   
    22    10    11 ar  
    23    10    34 ar  
    24    11    12 ar  
    25    12    13 ar  
    26    12    46 1   
    27    13    14 ar  
    28    14    15 1   
    29    14    34 ar  
    30    15    16 1   
    31    15    47 1   
    32    16    17 ar  
    33    16    33 ar  
    34    17    18 ar  
    35    17    48 1   
    36    18    19 ar  
    37    19    20 1   
    38    19    31 ar  
    39    20    21 1   
    40    21    22 ar  
    41    21    26 ar  
    42    22    23 ar  
    43    22    49 1   
    44    23    24 ar  
    45    23    50 1   
    46    24    25 ar  
    47    24    51 1   
    48    25    26 ar  
    49    25    27 1   
    50    26    52 1   
    51    27    28 1   
    52    27    29 1   
    53    27    30 1   
    54    31    32 1   
    55    31    33 ar  
    56    33    53 1   
@<TRIPOS>SUBSTRUCTURE
     1 03Q         1 TEMP              0 ****  ****    0 ROOT
