@<TRIPOS>MOLECULE
03Q
   53    56     1     0     0
SMALL
bcc


@<TRIPOS>ATOM
      1 O1          -4.8140     4.3410    -0.8930 oh         1 03Q      -0.588800
      2 C2          -5.6620     3.7310    -1.8370 c3         1 03Q       0.140400
      3 C3          -5.2510     2.2940    -2.0270 c3         1 03Q       0.138400
      4 O4          -5.4600     1.5750    -0.8350 os         1 03Q      -0.404600
      5 C5          -5.0920     0.2290    -0.9400 c3         1 03Q       0.110400
      6 C6          -5.3220    -0.4180     0.4200 c3         1 03Q       0.043300
      7 N7          -4.9410    -1.8140     0.4180 na         1 03Q      -0.042400
      8 C8          -5.8370    -2.8330     0.2880 cc         1 03Q      -0.093100
      9 C9          -5.1980    -4.0360     0.1750 cd         1 03Q      -0.304800
     10 C10         -3.8110    -3.7470     0.2230 ca         1 03Q       0.451100
     11 N11         -2.7560    -4.5780     0.1340 nb         1 03Q      -0.684000
     12 C12         -1.5940    -3.9770     0.1940 ca         1 03Q       0.663900
     13 N13         -1.3550    -2.6730     0.3500 nb         1 03Q      -0.783000
     14 C14         -2.3740    -1.8360     0.4550 ca         1 03Q       0.719200
     15 N15         -2.1150    -0.5040     0.6260 nu         1 03Q      -0.751300
     16 C16         -0.8440     0.0750     0.6610 ca         1 03Q       0.023300
     17 C17          0.1530    -0.2330    -0.2560 ca         1 03Q       0.457200
     18 N18          1.3480     0.3440    -0.2290 nb         1 03Q      -0.719000
     19 C19          1.6140     1.2550     0.6700 ca         1 03Q       0.635600
     20 O20          2.8220     1.8500     0.6960 os         1 03Q      -0.355400
     21 C21          3.7770     1.4330    -0.2010 ca         1 03Q       0.108100
     22 C22          3.9320     2.1180    -1.3960 ca         1 03Q      -0.093000
     23 C23          4.9420     1.7370    -2.2640 ca         1 03Q      -0.129000
     24 C24          5.7840     0.6790    -1.9490 ca         1 03Q      -0.077000
     25 C25          5.6120     0.0040    -0.7490 ca         1 03Q      -0.189300
     26 C26          4.6040     0.3780     0.1340 ca         1 03Q      -0.075000
     27 C27          6.4960    -1.1410    -0.3630 c3         1 03Q       0.721200
     28 F28          7.1590    -0.8900     0.7750 f          1 03Q      -0.233967
     29 F29          5.7890    -2.2600    -0.1520 f          1 03Q      -0.233967
     30 F30          7.4100    -1.4240    -1.2940 f          1 03Q      -0.233967
     31 C31          0.6740     1.6580     1.6190 ca         1 03Q      -0.094900
     32 CL32         1.0670     2.8710     2.7730 cl         1 03Q      -0.066400
     33 C33         -0.5620     1.0500     1.6170 ca         1 03Q      -0.108000
     34 C34         -3.6780    -2.3540     0.3750 ca         1 03Q      -0.333800
     35 HO1         -5.1060     5.2490    -0.7720 ho         1 03Q       0.406000
     36 H2          -6.7140     3.7700    -1.5260 h1         1 03Q       0.028200
     37 H2A         -5.6040     4.2180    -2.8180 h1         1 03Q       0.028200
     38 H3          -5.8420     1.8700    -2.8500 h1         1 03Q       0.034200
     39 H3A         -4.1960     2.2400    -2.3320 h1         1 03Q       0.034200
     40 H5          -5.6890    -0.2970    -1.6980 h1         1 03Q       0.039200
     41 H5A         -4.0390     0.1280    -1.2400 h1         1 03Q       0.039200
     42 H6          -4.7920     0.1200     1.2080 h1         1 03Q       0.068700
     43 H6A         -6.3790    -0.3680     0.6790 h1         1 03Q       0.068700
     44 H8          -6.8940    -2.6180     0.2870 h4         1 03Q       0.167000
     45 H9          -5.6620    -5.0030     0.0700 ha         1 03Q       0.173000
     46 H12         -0.7120    -4.6040     0.1160 h5         1 03Q       0.050100
     47 HN15        -2.8460     0.0570     1.0290 hn         1 03Q       0.442800
     48 H17         -0.0110    -0.9650    -1.0340 h4         1 03Q       0.047100
     49 H22          3.2760     2.9430    -1.6410 ha         1 03Q       0.150000
     50 H23          5.0740     2.2650    -3.1980 ha         1 03Q       0.141000
     51 H24          6.5630     0.3990    -2.6440 ha         1 03Q       0.151000
     52 H26          4.4580    -0.1350     1.0770 ha         1 03Q       0.161000
     53 H33         -1.3040     1.3280     2.3550 ha         1 03Q       0.153000
@<TRIPOS>BOND
     1     1     2 1   
     2     1    35 1   
     3     2     3 1   
     4     2    36 1   
     5     2    37 1   
     6     3     4 1   
     7     3    38 1   
     8     3    39 1   
     9     4     5 1   
    10     5     6 1   
    11     5    40 1   
    12     5    41 1   
    13     6     7 1   
    14     6    42 1   
    15     6    43 1   
    16     7     8 1   
    17     7    34 1   
    18     8     9 2   
    19     8    44 1   
    20     9    10 1   
    21     9    45 1   
    22    10    11 ar  
    23    10    34 ar  
    24    11    12 ar  
    25    12    13 ar  
    26    12    46 1   
    27    13    14 ar  
    28    14    15 1   
    29    14    34 ar  
    30    15    16 1   
    31    15    47 1   
    32    16    17 ar  
    33    16    33 ar  
    34    17    18 ar  
    35    17    48 1   
    36    18    19 ar  
    37    19    20 1   
    38    19    31 ar  
    39    20    21 1   
    40    21    22 ar  
    41    21    26 ar  
    42    22    23 ar  
    43    22    49 1   
    44    23    24 ar  
    45    23    50 1   
    46    24    25 ar  
    47    24    51 1   
    48    25    26 ar  
    49    25    27 1   
    50    26    52 1   
    51    27    28 1   
    52    27    29 1   
    53    27    30 1   
    54    31    32 1   
    55    31    33 ar  
    56    33    53 1   
@<TRIPOS>SUBSTRUCTURE
     1 03Q         1 TEMP              0 ****  ****    0 ROOT
