@<TRIPOS>MOLECULE
03R
   64    67     1     0     0
SMALL
abcg2


@<TRIPOS>ATOM
      1 C1          31.3770     7.1720     8.1580 ca         1 03R       0.652300
      2 N2          30.8720     7.0820     9.3660 nb         1 03R      -0.792000
      3 C3          32.5490     7.8430     7.8770 ca         1 03R       0.044000
      4 O4          30.7460     6.5550     7.1410 os         1 03R      -0.345400
      5 C5          31.4760     7.7130    10.3470 ca         1 03R       0.610300
      6 C6          33.2150     8.5460     8.8850 ca         1 03R       0.336000
      7 F7          33.0030     7.8520     6.6140 f          1 03R      -0.162000
      8 C8          29.3750     6.4520     7.2140 ca         1 03R       0.135100
      9 C9          32.6270     8.4410    10.1560 ca         1 03R      -0.017000
     10 O10         30.9780     7.6480    11.6000 os         1 03R      -0.363400
     11 N11         34.3420     9.2810     8.7200 nu         1 03R      -0.944200
     12 C12         28.5540     7.5610     7.4290 ca         1 03R      -0.145600
     13 C13         28.8500     5.1800     7.0490 ca         1 03R      -0.139000
     14 F14         33.1990     9.0950    11.1840 f          1 03R      -0.180000
     15 C15         29.6920     7.2070    11.8070 ca         1 03R       0.114100
     16 C16         34.7080     9.9980     7.5010 c3         1 03R       0.234500
     17 C17         27.1830     7.3300     7.4980 ca         1 03R      -0.083000
     18 C18         29.0690     8.9930     7.5310 c          1 03R       0.711600
     19 C19         27.4760     4.9880     7.0800 ca         1 03R      -0.127000
     20 C20         29.5200     6.2540    12.7970 ca         1 03R      -0.110000
     21 C21         28.6070     7.7290    11.1180 ca         1 03R      -0.075000
     22 C22         36.0470    10.6940     7.7200 c3         1 03R      -0.084400
     23 C23         33.6370    11.0040     7.0890 c3         1 03R      -0.131100
     24 C24         26.6380     6.0680     7.3140 ca         1 03R      -0.144000
     25 O25         28.4150     9.7640     8.2600 o          1 03R      -0.713000
     26 O26         30.0690     9.2750     6.8480 o          1 03R      -0.713000
     27 C27         28.2380     5.8190    13.1300 ca         1 03R      -0.156900
     28 C28         27.3360     7.2850    11.4500 ca         1 03R      -0.105000
     29 C29         37.2160     9.7670     8.0700 c3         1 03R      -0.024100
     30 C30         27.1440     6.3450    12.4510 ca         1 03R      -0.081000
     31 C31         28.0230     4.8050    14.2000 ce         1 03R       0.667800
     32 C32         37.2350     9.2890     9.4980 ca         1 03R      -0.072300
     33 N33         26.9210     4.8260    14.8460 n2         1 03R      -0.839100
     34 N34         29.0740     3.9610    14.4240 nv         1 03R      -1.073200
     35 C35         37.1380     7.9360     9.8140 ca         1 03R      -0.106000
     36 C36         37.3440    10.2030    10.5450 ca         1 03R      -0.106000
     37 C37         37.1420     7.5060    11.1340 ca         1 03R      -0.109000
     38 C38         37.3440     9.7800    11.8680 ca         1 03R      -0.109000
     39 C39         37.2410     8.4280    12.1680 ca         1 03R      -0.111000
     40 H11         34.6690     9.7230     9.5640 hn         1 03R       0.480000
     41 H13         29.5190     4.3430     6.8970 ha         1 03R       0.103000
     42 H16         34.8510     9.2730     6.6980 h1         1 03R       0.069700
     43 H17         26.5290     8.1720     7.6870 ha         1 03R       0.125000
     44 H19         27.0700     3.9950     6.9370 ha         1 03R       0.089000
     45 H20         30.3910     5.8780    13.3210 ha         1 03R       0.120000
     46 H21         28.7300     8.4580    10.3280 ha         1 03R       0.183000
     47 H221        35.9370    11.4710     8.4850 hc         1 03R       0.042700
     48 H222        36.2850    11.2200     6.7930 hc         1 03R       0.042700
     49 H231        32.6590    10.5360     6.9630 hc         1 03R       0.055033
     50 H232        33.9020    11.4770     6.1430 hc         1 03R       0.055033
     51 H233        33.5370    11.7880     7.8430 hc         1 03R       0.055033
     52 H24         25.5650     5.9290     7.3540 ha         1 03R       0.091000
     53 H28         26.4840     7.6800    10.9120 ha         1 03R       0.125000
     54 H291        38.1450    10.3090     7.8720 hc         1 03R       0.043200
     55 H292        37.2140     8.9090     7.3930 hc         1 03R       0.043200
     56 H30         26.1470     6.0100    12.7020 ha         1 03R       0.124000
     57 H33         26.8770     4.0690    15.5240 hn         1 03R       0.355400
     58 H341        28.9070     3.1750    15.0320 hn         1 03R       0.455500
     59 H342        29.6790     3.7420    13.6490 hn         1 03R       0.455500
     60 H35         37.0480     7.2090     9.0160 ha         1 03R       0.109500
     61 H36         37.4300    11.2620    10.3270 ha         1 03R       0.109500
     62 H37         37.0630     6.4490    11.3550 ha         1 03R       0.107500
     63 H38         37.4270    10.5090    12.6640 ha         1 03R       0.107500
     64 H39         37.2390     8.0970    13.1990 ha         1 03R       0.107000
@<TRIPOS>BOND
     1     1     2 ar  
     2     1     3 ar  
     3     1     4 1   
     4     2     5 ar  
     5     3     6 ar  
     6     3     7 1   
     7     4     8 1   
     8     5     9 ar  
     9     5    10 1   
    10     6     9 ar  
    11     6    11 1   
    12     8    12 ar  
    13     8    13 ar  
    14     9    14 1   
    15    10    15 1   
    16    11    16 1   
    17    11    40 1   
    18    12    17 ar  
    19    12    18 1   
    20    13    19 ar  
    21    13    41 1   
    22    15    20 ar  
    23    15    21 ar  
    24    16    22 1   
    25    16    23 1   
    26    16    42 1   
    27    17    24 ar  
    28    17    43 1   
    29    18    25 1   
    30    18    26 1   
    31    19    24 ar  
    32    19    44 1   
    33    20    27 ar  
    34    20    45 1   
    35    21    28 ar  
    36    21    46 1   
    37    22    29 1   
    38    22    47 1   
    39    22    48 1   
    40    23    49 1   
    41    23    50 1   
    42    23    51 1   
    43    24    52 1   
    44    27    30 ar  
    45    27    31 1   
    46    28    30 ar  
    47    28    53 1   
    48    29    32 1   
    49    29    54 1   
    50    29    55 1   
    51    30    56 1   
    52    31    33 2   
    53    31    34 1   
    54    32    35 ar  
    55    32    36 ar  
    56    33    57 1   
    57    34    58 1   
    58    34    59 1   
    59    35    37 ar  
    60    35    60 1   
    61    36    38 ar  
    62    36    61 1   
    63    37    39 ar  
    64    37    62 1   
    65    38    39 ar  
    66    38    63 1   
    67    39    64 1   
@<TRIPOS>SUBSTRUCTURE
     1 03R         1 TEMP              0 ****  ****    0 ROOT
