@<TRIPOS>MOLECULE
03R
   64    67     1     0     0
SMALL
No Charge or Current Charge


@<TRIPOS>ATOM
      1 C1          31.4700     8.1540     8.0620 ca         1 03R       0.652300
      2 N2          30.9840     8.1290     9.3200 nb         1 03R      -0.792000
      3 C3          32.4790     9.0440     7.6450 ca         1 03R       0.044000
      4 O4          30.9670     7.2550     7.1450 os         1 03R      -0.345400
      5 C5          31.4730     9.0090    10.2120 ca         1 03R       0.610300
      6 C6          33.0030     9.9570     8.5840 ca         1 03R       0.336000
      7 F7          32.9070     9.0280     6.3540 f          1 03R      -0.162000
      8 C8          29.7840     6.5820     7.3450 ca         1 03R       0.135100
      9 C9          32.4720     9.9450     9.8860 ca         1 03R      -0.017000
     10 O10         30.9900     8.9930    11.5060 os         1 03R      -0.363400
     11 N11         33.9950    10.9100     8.2680 nu         1 03R      -0.944200
     12 C12         28.5380     7.2560     7.4270 ca         1 03R      -0.145600
     13 C13         29.8430     5.1830     7.4750 ca         1 03R      -0.139000
     14 F14         32.9290    10.8220    10.8220 f          1 03R      -0.180000
     15 C15         30.0380     8.1020    11.9490 ca         1 03R       0.114100
     16 C16         35.2270    10.6840     7.4990 c3         1 03R       0.234500
     17 C17         27.3710     6.4950     7.6700 ca         1 03R      -0.083000
     18 C18         28.4220     8.7540     7.2670 c          1 03R       0.711600
     19 C19         28.6750     4.4400     7.7080 ca         1 03R      -0.127000
     20 C20         30.3500     7.2560    13.0260 ca         1 03R      -0.110000
     21 C21         28.7570     8.0650    11.3710 ca         1 03R      -0.075000
     22 C22         36.3900    10.2380     8.4270 c3         1 03R      -0.084400
     23 C23         35.5460    12.0040     6.7730 c3         1 03R      -0.131100
     24 C24         27.4400     5.0980     7.8100 ca         1 03R      -0.144000
     25 O25         27.6100     9.3450     7.9660 o          1 03R      -0.713000
     26 O26         29.0820     9.3100     6.4010 o          1 03R      -0.713000
     27 C27         29.3980     6.3290    13.5210 ca         1 03R      -0.156900
     28 C28         27.7970     7.1650    11.8590 ca         1 03R      -0.105000
     29 C29         36.5910     8.7060     8.5430 c3         1 03R      -0.024100
     30 C30         28.1130     6.3080    12.9280 ca         1 03R      -0.081000
     31 C31         29.7080     5.4340    14.6870 ce         1 03R       0.667800
     32 C32         35.5070     7.9560     9.3120 ca         1 03R      -0.072300
     33 N33         28.8170     4.8390    15.3680 n2         1 03R      -0.839100
     34 N34         31.0020     5.1770    14.9690 nv         1 03R      -1.073200
     35 C35         34.7800     6.9230     8.6870 ca         1 03R      -0.106000
     36 C36         35.2660     8.2440    10.6700 ca         1 03R      -0.106000
     37 C37         33.8190     6.1940     9.4090 ca         1 03R      -0.109000
     38 C38         34.3030     7.5160    11.3910 ca         1 03R      -0.109000
     39 C39         33.5800     6.4900    10.7610 ca         1 03R      -0.111000
     40 H11         34.0860    11.6240     8.9910 hn         1 03R       0.480000
     41 H13         30.8010     4.6750     7.4050 ha         1 03R       0.103000
     42 H16         35.0840     9.9220     6.7210 h1         1 03R       0.069700
     43 H17         26.4050     6.9890     7.7430 ha         1 03R       0.125000
     44 H19         28.7280     3.3590     7.8130 ha         1 03R       0.089000
     45 H20         31.3370     7.3340    13.4740 ha         1 03R       0.120000
     46 H21         28.5110     8.7300    10.5470 ha         1 03R       0.183000
     47 H221        36.2830    10.6880     9.4220 hc         1 03R       0.042700
     48 H222        37.3270    10.6410     8.0220 hc         1 03R       0.042700
     49 H231        34.7100    12.3010     6.1290 hc         1 03R       0.055033
     50 H232        36.4330    11.8900     6.1390 hc         1 03R       0.055033
     51 H233        35.7370    12.8120     7.4890 hc         1 03R       0.055033
     52 H24         26.5340     4.5260     7.9930 ha         1 03R       0.091000
     53 H28         26.8070     7.1330    11.4110 ha         1 03R       0.125000
     54 H291        37.5530     8.5280     9.0400 hc         1 03R       0.043200
     55 H292        36.7030     8.2910     7.5340 hc         1 03R       0.043200
     56 H30         27.3520     5.6210    13.2920 ha         1 03R       0.124000
     57 H33         29.2630     4.4570    16.2080 hn         1 03R       0.355400
     58 H341        31.1840     4.2970    15.4360 hn         1 03R       0.455500
     59 H342        31.6600     5.4230    14.2400 hn         1 03R       0.455500
     60 H35         34.9620     6.6790     7.6430 ha         1 03R       0.109500
     61 H36         35.8290     9.0280    11.1710 ha         1 03R       0.109500
     62 H37         33.2590     5.3990     8.9200 ha         1 03R       0.107500
     63 H38         34.1190     7.7460    12.4380 ha         1 03R       0.107500
     64 H39         32.8330     5.9280    11.3160 ha         1 03R       0.107000
@<TRIPOS>BOND
     1     1     2 ar  
     2     1     3 ar  
     3     1     4 1   
     4     2     5 ar  
     5     3     6 ar  
     6     3     7 1   
     7     4     8 1   
     8     5     9 ar  
     9     5    10 1   
    10     6     9 ar  
    11     6    11 1   
    12     8    12 ar  
    13     8    13 ar  
    14     9    14 1   
    15    10    15 1   
    16    11    16 1   
    17    11    40 1   
    18    12    17 ar  
    19    12    18 1   
    20    13    19 ar  
    21    13    41 1   
    22    15    20 ar  
    23    15    21 ar  
    24    16    22 1   
    25    16    23 1   
    26    16    42 1   
    27    17    24 ar  
    28    17    43 1   
    29    18    25 1   
    30    18    26 1   
    31    19    24 ar  
    32    19    44 1   
    33    20    27 ar  
    34    20    45 1   
    35    21    28 ar  
    36    21    46 1   
    37    22    29 1   
    38    22    47 1   
    39    22    48 1   
    40    23    49 1   
    41    23    50 1   
    42    23    51 1   
    43    24    52 1   
    44    27    30 ar  
    45    27    31 1   
    46    28    30 ar  
    47    28    53 1   
    48    29    32 1   
    49    29    54 1   
    50    29    55 1   
    51    30    56 1   
    52    31    33 2   
    53    31    34 1   
    54    32    35 ar  
    55    32    36 ar  
    56    33    57 1   
    57    34    58 1   
    58    34    59 1   
    59    35    37 ar  
    60    35    60 1   
    61    36    38 ar  
    62    36    61 1   
    63    37    39 ar  
    64    37    62 1   
    65    38    39 ar  
    66    38    63 1   
    67    39    64 1   
@<TRIPOS>SUBSTRUCTURE
     1 03R         1 TEMP              0 ****  ****    0 ROOT
