@<TRIPOS>MOLECULE
03S
    8     7     1     0     0
SMALL
abcg2


@<TRIPOS>ATOM
      1 S10         -0.0500    -0.0270     0.0150 s6         1 03S       1.329600
      2 O11         -0.3330    -1.2570     0.7830 o          1 03S      -0.705867
      3 O12         -0.3520     1.2060     0.7680 o          1 03S      -0.705867
      4 C13          1.7250    -0.0140    -0.2380 c3         1 03S      -0.383100
      5 H113         2.0240    -0.9050    -0.7860 h1         1 03S       0.056700
      6 H213         2.0070     0.8700    -0.8080 h1         1 03S       0.056700
      7 H313         2.2340     0.0040     0.7240 h1         1 03S       0.056700
      8 OXT         -0.6410    -0.0400    -1.3380 o          1 03S      -0.705867
@<TRIPOS>BOND
     1     1     2 1   
     2     1     3 1   
     3     1     4 1   
     4     1     8 1   
     5     4     5 1   
     6     4     6 1   
     7     4     7 1   
@<TRIPOS>SUBSTRUCTURE
     1 03S         1 TEMP              0 ****  ****    0 ROOT
