@<TRIPOS>MOLECULE
03S
    8     7     1     0     0
SMALL
No Charge or Current Charge


@<TRIPOS>ATOM
      1 S10         -0.0610    -0.0270     0.0170 s6         1 03S       1.329600
      2 O11         -0.2900    -1.2610     0.7830 o          1 03S      -0.705867
      3 O12         -0.3120     1.2150     0.7620 o          1 03S      -0.705867
      4 C13          1.7190    -0.0140    -0.2370 c3         1 03S      -0.383100
      5 H113         1.9880    -0.9180    -0.7930 h1         1 03S       0.056700
      6 H213         1.9720     0.8860    -0.8080 h1         1 03S       0.056700
      7 H313         2.2010    -0.0010     0.7460 h1         1 03S       0.056700
      8 OXT         -0.6030    -0.0430    -1.3500 o          1 03S      -0.705867
@<TRIPOS>BOND
     1     1     2 1   
     2     1     3 1   
     3     1     4 1   
     4     1     8 1   
     5     4     5 1   
     6     4     6 1   
     7     4     7 1   
@<TRIPOS>SUBSTRUCTURE
     1 03S         1 TEMP              0 ****  ****    0 ROOT
