@<TRIPOS>MOLECULE
03T
   20    21     1     0     0
SMALL
No Charge or Current Charge


@<TRIPOS>ATOM
      1 N            2.8430    -0.4260    -1.4630 n8         1 03T      -1.006100
      2 S            2.4900    -0.2430     0.1230 sy         1 03T       1.178200
      3 O1           3.0570     1.0560     0.4770 o          1 03T      -0.528000
      4 S1          -0.1250     1.4480     0.0560 ss         1 03T       0.156400
      5 C2           0.7190    -0.1240     0.0600 cc         1 03T      -0.326500
      6 O2           2.8830    -1.4990     0.7600 o          1 03T      -0.528000
      7 C3          -0.1700    -1.1840     0.0300 cd         1 03T      -0.018200
      8 C4          -2.6810    -1.6380    -0.0470 ca         1 03T      -0.054000
      9 C5          -3.9620    -1.0490    -0.0790 ca         1 03T      -0.120000
     10 C6          -4.0980     0.3570    -0.0730 ca         1 03T      -0.079000
     11 C7          -2.9550     1.1820    -0.0320 ca         1 03T      -0.094000
     12 C8          -1.6870     0.5780    -0.0000 ca         1 03T      -0.139000
     13 C9          -1.5590    -0.7960    -0.0070 ca         1 03T      -0.109800
     14 HN           3.5310     0.3120    -1.5900 hn         1 03T       0.480000
     15 HNA          2.0050    -0.0600    -1.9060 hn         1 03T       0.480000
     16 H3           0.1530    -2.2240     0.0370 ha         1 03T       0.221000
     17 H4          -2.5680    -2.7200    -0.0510 ha         1 03T       0.122000
     18 H5          -4.8470    -1.6800    -0.1100 ha         1 03T       0.120000
     19 H6          -5.0890     0.8060    -0.0980 ha         1 03T       0.118000
     20 H7          -3.0550     2.2650    -0.0260 ha         1 03T       0.126000
@<TRIPOS>BOND
     1     1     2 1   
     2     1    14 1   
     3     1    15 1   
     4     2     3 2   
     5     2     5 1   
     6     2     6 2   
     7     4     5 1   
     8     4    12 1   
     9     5     7 2   
    10     7    13 1   
    11     7    16 1   
    12     8     9 ar  
    13     8    13 ar  
    14     8    17 1   
    15     9    10 ar  
    16     9    18 1   
    17    10    11 ar  
    18    10    19 1   
    19    11    12 ar  
    20    11    20 1   
    21    12    13 ar  
@<TRIPOS>SUBSTRUCTURE
     1 03T         1 TEMP              0 ****  ****    0 ROOT
