@<TRIPOS>MOLECULE
03T
   20    21     1     0     0
SMALL
abcg2


@<TRIPOS>ATOM
      1 N            2.9510    -0.1080    -1.4210 n8         1 03T      -1.006100
      2 S            2.4280    -0.2510     0.1230 sy         1 03T       1.178200
      3 O1           2.8880     0.9330     0.8240 o          1 03T      -0.528000
      4 S1          -0.1120     1.3710     0.0800 ss         1 03T       0.156400
      5 C2           0.6750    -0.1740     0.1060 cc         1 03T      -0.326500
      6 O2           2.7950    -1.5810     0.5690 o          1 03T      -0.528000
      7 C3          -0.1680    -1.2300     0.0750 cd         1 03T      -0.018200
      8 C4          -2.6910    -1.6010    -0.0220 ca         1 03T      -0.054000
      9 C5          -3.9230    -0.9850    -0.0760 ca         1 03T      -0.120000
     10 C6          -4.0260     0.4140    -0.0880 ca         1 03T      -0.079000
     11 C7          -2.9010     1.2140    -0.0460 ca         1 03T      -0.094000
     12 C8          -1.6570     0.5890     0.0050 ca         1 03T      -0.139000
     13 C9          -1.5350    -0.8120     0.0180 ca         1 03T      -0.109800
     14 HN           2.7850     0.8020    -1.8340 hn         1 03T       0.480000
     15 HNA          2.6500    -0.8580    -2.0330 hn         1 03T       0.480000
     16 H3           0.1480    -2.2630     0.0920 ha         1 03T       0.221000
     17 H4          -2.6110    -2.6800    -0.0140 ha         1 03T       0.122000
     18 H5          -4.8220    -1.5850    -0.1110 ha         1 03T       0.120000
     19 H6          -5.0030     0.8760    -0.1320 ha         1 03T       0.118000
     20 H7          -2.9860     2.2920    -0.0550 ha         1 03T       0.126000
@<TRIPOS>BOND
     1     1     2 1   
     2     1    14 1   
     3     1    15 1   
     4     2     3 2   
     5     2     5 1   
     6     2     6 2   
     7     4     5 1   
     8     4    12 1   
     9     5     7 2   
    10     7    13 1   
    11     7    16 1   
    12     8     9 ar  
    13     8    13 ar  
    14     8    17 1   
    15     9    10 ar  
    16     9    18 1   
    17    10    11 ar  
    18    10    19 1   
    19    11    12 ar  
    20    11    20 1   
    21    12    13 ar  
@<TRIPOS>SUBSTRUCTURE
     1 03T         1 TEMP              0 ****  ****    0 ROOT
