@<TRIPOS>MOLECULE
03U
   44    45     1     0     0
SMALL
No Charge or Current Charge


@<TRIPOS>ATOM
      1 C1          -4.1770     1.7790    -0.4650 ca         1 03U      -0.065500
      2 C2          -3.4450     0.7530     0.1830 cp         1 03U      -0.047000
      3 C3          -5.5660     1.9000    -0.2800 ca         1 03U      -0.151000
      4 C4          -4.1440    -0.1330     1.0400 ca         1 03U      -0.065500
      5 C5          -6.2390     1.0030     0.5630 ca         1 03U       0.175000
      6 C6          -5.5320    -0.0120     1.2260 ca         1 03U      -0.151000
      7 C7          -1.9660     0.6430    -0.0020 cp         1 03U      -0.012000
      8 C8          -1.3000    -0.5390    -0.4460 ca         1 03U      -0.096600
      9 C9          -1.1620     1.7590     0.3230 ca         1 03U      -0.086000
     10 C10          0.1080    -0.5940    -0.5220 ca         1 03U      -0.083000
     11 C11          0.2380     1.7050     0.2370 ca         1 03U      -0.143000
     12 C12          0.8890     0.5290    -0.1730 ca         1 03U      -0.023000
     13 F13         -7.5720     1.1200     0.7420 f          1 03U      -0.181000
     14 C14         -2.1440    -1.7170    -0.8850 c          1 03U       0.598700
     15 O15         -1.5610    -2.9230    -0.5800 os         1 03U      -0.433100
     16 O16         -3.2100    -1.6160    -1.4800 o          1 03U      -0.471000
     17 C17         -2.2560    -4.1270    -0.9540 c3         1 03U       0.150900
     18 N18          2.3100     0.5530    -0.2360 ns         1 03U      -0.151000
     19 C19          3.2580    -0.4490    -0.4350 c          1 03U       0.647300
     20 C20          4.6820     0.0270    -0.4340 ce         1 03U      -0.203900
     21 O21          2.9600    -1.6350    -0.5220 o          1 03U      -0.561100
     22 C22          5.6910    -0.6580     0.1670 c2         1 03U       0.227900
     23 C23          4.9160     1.3180    -1.0020 cg         1 03U       0.294700
     24 N24          5.0660     2.3850    -1.4470 n1         1 03U      -0.469000
     25 O25          5.4850    -1.8270     0.7990 oh         1 03U      -0.472100
     26 C26          7.1470    -0.2030     0.2470 c3         1 03U      -0.108200
     27 C27          7.4250     0.7070     1.4640 c3         1 03U      -0.091100
     28 H1          -3.6610     2.4770    -1.1200 ha         1 03U       0.119000
     29 H3          -6.1190     2.6870    -0.7860 ha         1 03U       0.131000
     30 H4          -3.6010    -0.9160     1.5650 ha         1 03U       0.119000
     31 H6          -6.0590    -0.6990     1.8830 ha         1 03U       0.131000
     32 H9          -1.6350     2.6760     0.6670 ha         1 03U       0.121000
     33 H10          0.5740    -1.5060    -0.8810 ha         1 03U       0.155000
     34 H11          0.8210     2.5850     0.5020 ha         1 03U       0.116000
     35 H17         -1.6800    -5.0100    -0.6480 h1         1 03U       0.048700
     36 H17A        -3.2390    -4.1780    -0.4690 h1         1 03U       0.048700
     37 H17B        -2.4000    -4.1750    -2.0410 h1         1 03U       0.048700
     38 HN18         2.7060     1.4760    -0.1200 hn         1 03U       0.159000
     39 H26          7.8250    -1.0650     0.2900 hc         1 03U       0.073700
     40 H26A         7.4350     0.3310    -0.6670 hc         1 03U       0.073700
     41 H27          6.8110     1.6150     1.4210 hc         1 03U       0.048033
     42 H27A         7.2020     0.1840     2.4020 hc         1 03U       0.048033
     43 H27B         8.4790     1.0090     1.4840 hc         1 03U       0.048033
     44 H171         6.3370    -2.1160     1.1850 ho         1 03U       0.481000
@<TRIPOS>BOND
     1     1     2 ar  
     2     1     3 ar  
     3     1    28 1   
     4     2     4 ar  
     5     2     7 1   
     6     3     5 ar  
     7     3    29 1   
     8     4     6 ar  
     9     4    30 1   
    10     5     6 ar  
    11     5    13 1   
    12     6    31 1   
    13     7     8 ar  
    14     7     9 ar  
    15     8    10 ar  
    16     8    14 1   
    17     9    11 ar  
    18     9    32 1   
    19    10    12 ar  
    20    10    33 1   
    21    11    12 ar  
    22    11    34 1   
    23    12    18 1   
    24    14    15 1   
    25    14    16 2   
    26    15    17 1   
    27    17    35 1   
    28    17    36 1   
    29    17    37 1   
    30    18    19 1   
    31    18    38 1   
    32    19    20 1   
    33    19    21 2   
    34    20    22 2   
    35    20    23 1   
    36    22    25 1   
    37    22    26 1   
    38    23    24 3   
    39    25    44 1   
    40    26    27 1   
    41    26    39 1   
    42    26    40 1   
    43    27    41 1   
    44    27    42 1   
    45    27    43 1   
@<TRIPOS>SUBSTRUCTURE
     1 03U         1 TEMP              0 ****  ****    0 ROOT
