@<TRIPOS>MOLECULE
03U
   44    45     1     0     0
SMALL
abcg2


@<TRIPOS>ATOM
      1 C1          -4.1940     1.7310    -0.5250 ca         1 03U      -0.065500
      2 C2          -3.4640     0.7380     0.1240 cp         1 03U      -0.047000
      3 C3          -5.5700     1.8220    -0.3770 ca         1 03U      -0.151000
      4 C4          -4.1440    -0.1620     0.9440 ca         1 03U      -0.065500
      5 C5          -6.2080     0.9080     0.4380 ca         1 03U       0.175000
      6 C6          -5.5180    -0.0860     1.1060 ca         1 03U      -0.151000
      7 C7          -1.9930     0.6860    -0.0080 cp         1 03U      -0.012000
      8 C8          -1.2930    -0.4700    -0.3670 ca         1 03U      -0.096600
      9 C9          -1.2460     1.8230     0.2880 ca         1 03U      -0.086000
     10 C10          0.0990    -0.4930    -0.4020 ca         1 03U      -0.083000
     11 C11          0.1350     1.8170     0.2370 ca         1 03U      -0.143000
     12 C12          0.8260     0.6570    -0.1050 ca         1 03U      -0.023000
     13 F13         -7.5400     0.9910     0.5900 f          1 03U      -0.181000
     14 C14         -2.0220    -1.6810    -0.8430 c          1 03U       0.598700
     15 O15         -1.4760    -2.7980    -0.3890 os         1 03U      -0.433100
     16 O16         -2.9780    -1.6470    -1.5750 o          1 03U      -0.471000
     17 C17         -2.0320    -4.0340    -0.8440 c3         1 03U       0.150900
     18 N18          2.2190     0.7360    -0.1750 ns         1 03U      -0.151000
     19 C19          3.1140    -0.2850    -0.0390 c          1 03U       0.647300
     20 C20          4.5320     0.1240    -0.2030 ce         1 03U      -0.203900
     21 O21          2.7830    -1.4330     0.1850 o          1 03U      -0.561100
     22 C22          5.5940    -0.6440     0.1920 c2         1 03U       0.227900
     23 C23          4.8060     1.3780    -0.8030 cg         1 03U       0.294700
     24 N24          4.9840     2.4110    -1.2900 n1         1 03U      -0.469000
     25 O25          5.3810    -1.7860     0.8000 oh         1 03U      -0.472100
     26 C26          7.0170    -0.2130     0.0300 c3         1 03U      -0.108200
     27 C27          7.5800     0.3480     1.3390 c3         1 03U      -0.091100
     28 H1          -3.6870     2.4380    -1.1690 ha         1 03U       0.119000
     29 H3          -6.1330     2.5920    -0.8880 ha         1 03U       0.131000
     30 H4          -3.5970    -0.9260     1.4820 ha         1 03U       0.119000
     31 H6          -6.0410    -0.7820     1.7480 ha         1 03U       0.131000
     32 H9          -1.7530     2.7290     0.5940 ha         1 03U       0.121000
     33 H10          0.6070    -1.3940    -0.7040 ha         1 03U       0.155000
     34 H11          0.6810     2.7210     0.4790 ha         1 03U       0.116000
     35 H17         -1.4430    -4.8160    -0.3730 h1         1 03U       0.048700
     36 H17A        -3.0740    -4.1340    -0.5430 h1         1 03U       0.048700
     37 H17B        -1.9590    -4.1270    -1.9270 h1         1 03U       0.048700
     38 HN18         2.5810     1.6780    -0.1980 hn         1 03U       0.159000
     39 H26          7.6040    -1.0790    -0.2900 hc         1 03U       0.073700
     40 H26A         7.1090     0.5290    -0.7600 hc         1 03U       0.073700
     41 H27          7.0300     1.2340     1.6550 hc         1 03U       0.048033
     42 H27A         7.5430    -0.3820     2.1470 hc         1 03U       0.048033
     43 H27B         8.6210     0.6300     1.1950 hc         1 03U       0.048033
     44 H171         6.2140    -2.2240     1.0200 ho         1 03U       0.481000
@<TRIPOS>BOND
     1     1     2 ar  
     2     1     3 ar  
     3     1    28 1   
     4     2     4 ar  
     5     2     7 1   
     6     3     5 ar  
     7     3    29 1   
     8     4     6 ar  
     9     4    30 1   
    10     5     6 ar  
    11     5    13 1   
    12     6    31 1   
    13     7     8 ar  
    14     7     9 ar  
    15     8    10 ar  
    16     8    14 1   
    17     9    11 ar  
    18     9    32 1   
    19    10    12 ar  
    20    10    33 1   
    21    11    12 ar  
    22    11    34 1   
    23    12    18 1   
    24    14    15 1   
    25    14    16 2   
    26    15    17 1   
    27    17    35 1   
    28    17    36 1   
    29    17    37 1   
    30    18    19 1   
    31    18    38 1   
    32    19    20 1   
    33    19    21 2   
    34    20    22 2   
    35    20    23 1   
    36    22    25 1   
    37    22    26 1   
    38    23    24 3   
    39    25    44 1   
    40    26    27 1   
    41    26    39 1   
    42    26    40 1   
    43    27    41 1   
    44    27    42 1   
    45    27    43 1   
@<TRIPOS>SUBSTRUCTURE
     1 03U         1 TEMP              0 ****  ****    0 ROOT
