@<TRIPOS>MOLECULE
03V
   19    20     1     0     0
SMALL
bcc


@<TRIPOS>ATOM
      1 C1           1.8590     1.1300     0.1450 ca         1 03V      -0.206000
      2 O1           3.3210    -0.7820     0.1630 oh         1 03V      -0.495100
      3 C2           2.0760    -0.2690     0.1330 ca         1 03V       0.138100
      4 C3           1.0070    -1.1290     0.0880 ca         1 03V      -0.168000
      5 C4          -0.3130    -0.6290     0.0540 ca         1 03V       0.002000
      6 C5          -0.5350     0.7730     0.0660 ca         1 03V      -0.070000
      7 C7           0.5880     1.6300     0.1130 ca         1 03V      -0.075000
      8 C8          -1.8590     1.2680     0.0300 ca         1 03V      -0.104000
      9 C9          -2.9240     0.4110    -0.0170 ca         1 03V      -0.137000
     10 C10         -2.7060    -0.9830    -0.0290 ca         1 03V      -0.115000
     11 C11         -1.4360    -1.4910     0.0060 ca         1 03V      -0.126000
     12 H1           2.7060     1.8060     0.1800 ha         1 03V       0.130000
     13 HO1          3.9770    -0.0770     0.1850 ho         1 03V       0.426000
     14 H3           1.1710    -2.2010     0.0790 ha         1 03V       0.147000
     15 H7           0.4350     2.7030     0.1230 ha         1 03V       0.131000
     16 H8          -2.0150     2.3410     0.0400 ha         1 03V       0.129000
     17 H9          -3.9350     0.7970    -0.0440 ha         1 03V       0.131000
     18 H10         -3.5540    -1.6560    -0.0670 ha         1 03V       0.130000
     19 H11         -1.2760    -2.5620    -0.0040 ha         1 03V       0.133000
@<TRIPOS>BOND
     1     1     3 ar  
     2     1     7 ar  
     3     1    12 1   
     4     2     3 1   
     5     2    13 1   
     6     3     4 ar  
     7     4     5 ar  
     8     4    14 1   
     9     5     6 ar  
    10     5    11 ar  
    11     6     7 ar  
    12     6     8 ar  
    13     7    15 1   
    14     8     9 ar  
    15     8    16 1   
    16     9    10 ar  
    17     9    17 1   
    18    10    11 ar  
    19    10    18 1   
    20    11    19 1   
@<TRIPOS>SUBSTRUCTURE
     1 03V         1 TEMP              0 ****  ****    0 ROOT
