@<TRIPOS>MOLECULE
03V
   19    20     1     0     0
SMALL
No Charge or Current Charge


@<TRIPOS>ATOM
      1 C1           1.8830     1.1180     0.1450 ca         1 03V      -0.188000
      2 O1           3.3510    -0.7780     0.1640 oh         1 03V      -0.534100
      3 C2           2.0860    -0.2720     0.1320 ca         1 03V       0.138100
      4 C3           0.9890    -1.1450     0.0850 ca         1 03V      -0.150000
      5 C4          -0.3210    -0.6310     0.0520 ca         1 03V       0.002000
      6 C5          -0.5280     0.7660     0.0640 ca         1 03V      -0.070000
      7 C7           0.5770     1.6380     0.1110 ca         1 03V      -0.057000
      8 C8          -1.8390     1.2800     0.0310 ca         1 03V      -0.086000
      9 C9          -2.9380     0.4050    -0.0160 ca         1 03V      -0.119000
     10 C10         -2.7320    -0.9850    -0.0290 ca         1 03V      -0.097000
     11 C11         -1.4250    -1.5030     0.0050 ca         1 03V      -0.108000
     12 H1           2.7290     1.8000     0.1810 ha         1 03V       0.112000
     13 HO1          3.9840    -0.0280     0.1940 ho         1 03V       0.465000
     14 H3           1.1570    -2.2180     0.0760 ha         1 03V       0.129000
     15 H7           0.4250     2.7150     0.1210 ha         1 03V       0.113000
     16 H8          -2.0070     2.3550     0.0400 ha         1 03V       0.111000
     17 H9          -3.9490     0.8050    -0.0420 ha         1 03V       0.113000
     18 H10         -3.5840    -1.6610    -0.0650 ha         1 03V       0.112000
     19 H11         -1.2730    -2.5800    -0.0050 ha         1 03V       0.115000
@<TRIPOS>BOND
     1     1     3 ar  
     2     1     7 ar  
     3     1    12 1   
     4     2     3 1   
     5     2    13 1   
     6     3     4 ar  
     7     4     5 ar  
     8     4    14 1   
     9     5     6 ar  
    10     5    11 ar  
    11     6     7 ar  
    12     6     8 ar  
    13     7    15 1   
    14     8     9 ar  
    15     8    16 1   
    16     9    10 ar  
    17     9    17 1   
    18    10    11 ar  
    19    10    18 1   
    20    11    19 1   
@<TRIPOS>SUBSTRUCTURE
     1 03V         1 TEMP              0 ****  ****    0 ROOT
