@<TRIPOS>MOLECULE
03W
   15    14     1     0     0
SMALL
bcc


@<TRIPOS>ATOM
      1 C1          -1.1310    -0.1410    -0.3140 c3         1 03W       0.302900
      2 O1          -2.0880     0.6950     0.2570 oh         1 03W      -0.611300
      3 C2           0.2370     0.2930     0.2240 c3         1 03W       0.120100
      4 O2           0.4690     1.6610    -0.0100 oh         1 03W      -0.555800
      5 C3           1.3470    -0.5750    -0.3510 c3         1 03W       0.104400
      6 O3           2.5720    -0.1680     0.2100 oh         1 03W      -0.582800
      7 O5          -1.3880    -1.4940    -0.0660 oh         1 03W      -0.611300
      8 HO1         -2.9210     0.5760    -0.2120 ho         1 03W       0.415500
      9 H2           0.2280     0.1740     1.3150 h1         1 03W       0.093700
     10 HO2          0.5670     1.8000    -0.9590 ho         1 03W       0.397000
     11 H3           1.1370    -1.6270    -0.1360 h1         1 03W       0.026200
     12 H3A          1.3490    -0.4700    -1.4480 h1         1 03W       0.026200
     13 HO3          3.2530    -0.7700    -0.1030 ho         1 03W       0.405000
     14 HO5         -1.3220    -1.6570     0.8830 ho         1 03W       0.415500
     15 H1          -1.1350    -0.0540    -1.4100 h2         1 03W       0.053700
@<TRIPOS>BOND
     1     1     2 1   
     2     1     3 1   
     3     1     7 1   
     4     1    15 1   
     5     2     8 1   
     6     3     4 1   
     7     3     5 1   
     8     3     9 1   
     9     4    10 1   
    10     5     6 1   
    11     5    11 1   
    12     5    12 1   
    13     6    13 1   
    14     7    14 1   
@<TRIPOS>SUBSTRUCTURE
     1 03W         1 TEMP              0 ****  ****    0 ROOT
