@<TRIPOS>MOLECULE
03W
   15    14     1     0     0
SMALL
No Charge or Current Charge


@<TRIPOS>ATOM
      1 C1          -1.2500    -0.1740    -0.2500 c3         1 03W       0.349300
      2 O1          -2.2590     0.5570     0.4170 oh         1 03W      -0.733500
      3 C2           0.1920     0.3000     0.1600 c3         1 03W       0.143300
      4 O2           0.4280     1.6690    -0.2360 oh         1 03W      -0.618000
      5 C3           1.3100    -0.5660    -0.4810 c3         1 03W       0.127600
      6 O3           2.6040    -0.0070    -0.1780 oh         1 03W      -0.705000
      7 O5          -1.5030    -1.5140     0.1200 oh         1 03W      -0.733500
      8 HO1         -3.0510     0.5010    -0.1630 ho         1 03W       0.514500
      9 H2           0.2830     0.2090     1.2510 h1         1 03W       0.093700
     10 HO2          1.4090     1.7320    -0.2970 ho         1 03W       0.436000
     11 H3           1.2410    -1.5920    -0.0940 h1         1 03W       0.026200
     12 H3A          1.1590    -0.6100    -1.5680 h1         1 03W       0.026200
     13 HO3          3.2820    -0.6250    -0.5420 ho         1 03W       0.504000
     14 HO5         -1.2930    -1.5690     1.0790 ho         1 03W       0.514500
     15 H1          -1.3760    -0.0670    -1.3370 h2         1 03W       0.053700
@<TRIPOS>BOND
     1     1     2 1   
     2     1     3 1   
     3     1     7 1   
     4     1    15 1   
     5     2     8 1   
     6     3     4 1   
     7     3     5 1   
     8     3     9 1   
     9     4    10 1   
    10     5     6 1   
    11     5    11 1   
    12     5    12 1   
    13     6    13 1   
    14     7    14 1   
@<TRIPOS>SUBSTRUCTURE
     1 03W         1 TEMP              0 ****  ****    0 ROOT
