@<TRIPOS>MOLECULE
03X
   64    68     1     0     0
SMALL
abcg2


@<TRIPOS>ATOM
      1 N1          -5.7510     1.5030     2.4040 nb         1 03X      -0.687000
      2 N3           6.6680    -1.2730     0.8480 na         1 03X      -0.400400
      3 C4          -5.9690    -0.0310    -0.9620 ca         1 03X      -0.151000
      4 C5          -5.3950     0.4830     0.2270 ca         1 03X      -0.090000
      5 C6          -6.2280     0.9980     1.2440 ca         1 03X       0.304000
      6 C7          -4.4540     1.5080     2.5740 ca         1 03X       0.378900
      7 C8          -3.5230     1.0270     1.6410 ca         1 03X      -0.259000
      8 C10         -1.8740    -0.0760    -0.3280 ca         1 03X       0.001100
      9 C13         -1.3450    -1.1590     0.3520 ca         1 03X       0.194000
     10 C15          0.8890    -0.3740     0.0240 ca         1 03X       0.033000
     11 C17         -1.0020     0.8710    -0.8360 ca         1 03X      -0.057000
     12 C20          5.5170    -1.8510     1.1830 cc         1 03X       0.236800
     13 C21          5.0570     0.0290    -0.0130 c          1 03X       0.580200
     14 C22          5.5000    -3.0910     2.0010 c3         1 03X      -0.071900
     15 C24          7.4190     0.5850    -0.5460 ca         1 03X       0.034600
     16 C26          8.6930     2.5900    -0.8580 ca         1 03X      -0.104500
     17 C28          9.0550     0.6930    -2.2950 ca         1 03X      -0.104500
     18 C11        -10.3920     0.9390     0.5820 c3         1 03X       0.143900
     19 C2          -8.1770     0.4950    -0.1050 ca         1 03X       0.146100
     20 C3          -7.6300     0.9890     1.0470 ca         1 03X      -0.185000
     21 C1          -7.3250    -0.0290    -1.1330 ca         1 03X       0.113100
     22 O2          -7.9730    -0.4890    -2.2120 os         1 03X      -0.321100
     23 C12         -7.2040    -1.0230    -3.2720 c3         1 03X       0.143900
     24 C9          -4.0020     0.5100     0.4630 ca         1 03X       0.186100
     25 O1          -3.2250     0.0230    -0.5300 os         1 03X      -0.228200
     26 C14          0.0110    -1.3310     0.5400 ca         1 03X      -0.188000
     27 F1          -2.1880    -2.0700     0.8500 f          1 03X      -0.163000
     28 C16          0.3620     0.7240    -0.6670 ca         1 03X      -0.184000
     29 N2           2.2690    -0.4320     0.1410 ns         1 03X      -0.150000
     30 C18          3.0410    -1.3700     0.7650 c          1 03X       0.673300
     31 O4           2.5780    -2.3460     1.3400 o          1 03X      -0.613100
     32 C19          4.4720    -1.0920     0.6710 cd         1 03X      -0.422400
     33 C23          8.0090    -1.5900     1.2800 c3         1 03X       0.215100
     34 N4           6.4110    -0.1210     0.1510 n          1 03X      -0.165400
     35 C25          7.7230     1.8830    -0.1620 ca         1 03X      -0.093500
     36 C27          9.3630     1.9940    -1.9180 ca         1 03X      -0.096000
     37 C29          8.0730    -0.0130    -1.6170 ca         1 03X      -0.093500
     38 H4          -5.3240    -0.4280    -1.7320 ha         1 03X       0.136000
     39 H7          -4.0850     1.9190     3.5090 h4         1 03X       0.015100
     40 H8          -2.4680     1.0820     1.8680 ha         1 03X       0.134000
     41 H17         -1.3930     1.7280    -1.3700 ha         1 03X       0.131000
     42 H22          5.8800    -2.8950     3.0050 hc         1 03X       0.076033
     43 H22A         4.4890    -3.4700     2.0890 hc         1 03X       0.076033
     44 H22B         6.1240    -3.8640     1.5540 hc         1 03X       0.076033
     45 H26          8.9320     3.6040    -0.5650 ha         1 03X       0.122000
     46 H28          9.5720     0.2290    -3.1240 ha         1 03X       0.122000
     47 H11        -11.3860     0.8130     0.1620 h1         1 03X       0.043367
     48 H11A       -10.3280     0.3800     1.5190 h1         1 03X       0.043367
     49 H11B       -10.2260     1.9990     0.7890 h1         1 03X       0.043367
     50 H3          -8.2430     1.3920     1.8430 ha         1 03X       0.138000
     51 H12         -6.5250    -0.2790    -3.6960 h1         1 03X       0.042033
     52 H12A        -6.6220    -1.8910    -2.9520 h1         1 03X       0.042033
     53 H12B        -7.9100    -1.3340    -4.0380 h1         1 03X       0.042033
     54 H14          0.3610    -2.1990     1.0740 ha         1 03X       0.168000
     55 H16          1.0260     1.4750    -1.0750 ha         1 03X       0.128000
     56 HN2          2.7870     0.3260    -0.3010 hn         1 03X       0.194000
     57 H23          7.9550    -2.3840     2.0170 h1         1 03X       0.063700
     58 H23A         8.6260    -1.9260     0.4480 h1         1 03X       0.063700
     59 H23B         8.4700    -0.7200     1.7440 h1         1 03X       0.063700
     60 H25          7.2080     2.3320     0.6770 ha         1 03X       0.128500
     61 H27         10.1250     2.5450    -2.4530 ha         1 03X       0.120000
     62 H29          7.8140    -1.0200    -1.9190 ha         1 03X       0.128500
     63 O3          -9.4830     0.4460    -0.3850 os         1 03X      -0.318100
     64 O5           4.5410     0.9560    -0.6450 o          1 03X      -0.575000
@<TRIPOS>BOND
     1     1     5 ar  
     2     1     6 ar  
     3     2    12 1   
     4     2    33 1   
     5     2    34 1   
     6     3     4 ar  
     7     3    21 ar  
     8     3    38 1   
     9     4     5 ar  
    10     4    24 ar  
    11     5    20 ar  
    12     6     7 ar  
    13     6    39 1   
    14     7    24 ar  
    15     7    40 1   
    16     8     9 ar  
    17     8    11 ar  
    18     8    25 1   
    19     9    26 ar  
    20     9    27 1   
    21    10    26 ar  
    22    10    28 ar  
    23    10    29 1   
    24    11    28 ar  
    25    11    41 1   
    26    12    14 1   
    27    12    32 2   
    28    13    32 1   
    29    13    34 1   
    30    13    64 2   
    31    14    42 1   
    32    14    43 1   
    33    14    44 1   
    34    15    34 1   
    35    15    35 ar  
    36    15    37 ar  
    37    16    35 ar  
    38    16    36 ar  
    39    16    45 1   
    40    17    36 ar  
    41    17    37 ar  
    42    17    46 1   
    43    18    47 1   
    44    18    48 1   
    45    18    49 1   
    46    18    63 1   
    47    19    20 ar  
    48    19    21 ar  
    49    19    63 1   
    50    20    50 1   
    51    21    22 1   
    52    22    23 1   
    53    23    51 1   
    54    23    52 1   
    55    23    53 1   
    56    24    25 1   
    57    26    54 1   
    58    28    55 1   
    59    29    30 1   
    60    29    56 1   
    61    30    31 2   
    62    30    32 1   
    63    33    57 1   
    64    33    58 1   
    65    33    59 1   
    66    35    60 1   
    67    36    61 1   
    68    37    62 1   
@<TRIPOS>SUBSTRUCTURE
     1 03X         1 TEMP              0 ****  ****    0 ROOT
