@<TRIPOS>MOLECULE
03X
   64    68     1     0     0
SMALL
No Charge or Current Charge


@<TRIPOS>ATOM
      1 N1          -5.9070     1.2890     2.6200 nb         1 03X      -0.687000
      2 N3           6.6430    -1.4970     0.7920 na         1 03X      -0.400400
      3 C4          -5.9400     0.2850    -0.9430 ca         1 03X      -0.151000
      4 C5          -5.4540     0.7300     0.3070 ca         1 03X      -0.090000
      5 C6          -6.3330     0.8660     1.4090 ca         1 03X       0.304000
      6 C7          -4.6020     1.5930     2.7830 ca         1 03X       0.378900
      7 C8          -3.6660     1.4880     1.7500 ca         1 03X      -0.259000
      8 C10         -1.8730     0.6100    -0.3760 ca         1 03X       0.001100
      9 C13         -1.4850    -0.5500     0.3290 ca         1 03X       0.194000
     10 C15          0.8690    -0.0160    -0.0500 ca         1 03X       0.033000
     11 C17         -0.8890     1.4430    -0.9300 ca         1 03X      -0.057000
     12 C20          5.3730    -1.9790     1.1380 cc         1 03X       0.236800
     13 C21          5.1260    -0.0560    -0.1670 c          1 03X       0.580200
     14 C22          5.1580    -3.1850     2.0160 c3         1 03X      -0.071900
     15 C24          7.5640     0.3380    -0.7320 ca         1 03X       0.034600
     16 C26          8.6240     2.3850    -1.5470 ca         1 03X      -0.104500
     17 C28          9.6760     0.2330    -1.9590 ca         1 03X      -0.104500
     18 C11        -10.4960    -0.0980     0.8690 c3         1 03X       0.143900
     19 C2          -8.1870     0.1090    -0.0050 ca         1 03X       0.146100
     20 C3          -7.6910     0.5530     1.2400 ca         1 03X      -0.185000
     21 C1          -7.3070    -0.0270    -1.1040 ca         1 03X       0.113100
     22 O2          -7.8200    -0.4670    -2.3140 os         1 03X      -0.321100
     23 C12         -7.0030    -0.6370    -3.4860 c3         1 03X       0.143900
     24 C9          -4.0920     1.0420     0.4910 ca         1 03X       0.186100
     25 O1          -3.2000     0.9360    -0.5570 os         1 03X      -0.228200
     26 C14         -0.1250    -0.8590     0.4930 ca         1 03X      -0.188000
     27 F1          -2.4150    -1.3880     0.8430 f          1 03X      -0.163000
     28 C16          0.4720     1.1300    -0.7640 ca         1 03X      -0.184000
     29 N2           2.2640    -0.2590     0.0700 ns         1 03X      -0.150000
     30 C18          2.9970    -1.2400     0.7190 c          1 03X       0.673300
     31 O4           2.4820    -2.1420     1.3650 o          1 03X      -0.613100
     32 C19          4.4650    -1.1090     0.5730 cd         1 03X      -0.422400
     33 C23          7.9030    -1.6130     1.5700 c3         1 03X       0.215100
     34 N4           6.4860    -0.3220    -0.0400 n          1 03X      -0.165400
     35 C25          7.5710     1.7420    -0.8730 ca         1 03X      -0.093500
     36 C27          9.6770     1.6320    -2.0890 ca         1 03X      -0.096000
     37 C29          8.6240    -0.4100    -1.2840 ca         1 03X      -0.093500
     38 H4          -5.2500     0.1850    -1.7750 ha         1 03X       0.136000
     39 H7          -4.3010     1.9350     3.7730 h4         1 03X       0.015100
     40 H8          -2.6300     1.7560     1.9350 ha         1 03X       0.134000
     41 H17         -1.1810     2.3320    -1.4840 ha         1 03X       0.131000
     42 H22          4.7190    -2.8930     2.9760 hc         1 03X       0.076033
     43 H22A         4.4840    -3.9010     1.5330 hc         1 03X       0.076033
     44 H22B         6.0970    -3.7110     2.2190 hc         1 03X       0.076033
     45 H26          8.6230     3.4690    -1.6470 ha         1 03X       0.122000
     46 H28         10.4890    -0.3530    -2.3840 ha         1 03X       0.122000
     47 H11        -11.4870    -0.3940     0.5040 h1         1 03X       0.043367
     48 H11A       -10.2340    -0.7550     1.7080 h1         1 03X       0.043367
     49 H11B       -10.5640     0.9340     1.2360 h1         1 03X       0.043367
     50 H3          -8.3470     0.6650     2.0960 ha         1 03X       0.138000
     51 H12         -6.5400     0.3130    -3.7810 h1         1 03X       0.042033
     52 H12A        -6.2120    -1.3760    -3.3070 h1         1 03X       0.042033
     53 H12B        -7.6140    -0.9920    -4.3260 h1         1 03X       0.042033
     54 H14          0.1280    -1.7610     1.0390 ha         1 03X       0.168000
     55 H16          1.2230     1.7890    -1.1950 ha         1 03X       0.128000
     56 HN2          2.8390     0.4180    -0.4150 hn         1 03X       0.194000
     57 H23          7.6820    -1.9230     2.5990 h1         1 03X       0.063700
     58 H23A         8.5570    -2.3620     1.1070 h1         1 03X       0.063700
     59 H23B         8.4270    -0.6500     1.6070 h1         1 03X       0.063700
     60 H25          6.7670     2.3380    -0.4490 ha         1 03X       0.128500
     61 H27         10.4920     2.1300    -2.6120 ha         1 03X       0.120000
     62 H29          8.6260    -1.4950    -1.2060 ha         1 03X       0.128500
     63 O3          -9.5250    -0.2040    -0.1870 os         1 03X      -0.318100
     64 O5           4.6190     0.8580    -0.8030 o          1 03X      -0.575000
@<TRIPOS>BOND
     1     1     5 ar  
     2     1     6 ar  
     3     2    12 1   
     4     2    33 1   
     5     2    34 1   
     6     3     4 ar  
     7     3    21 ar  
     8     3    38 1   
     9     4     5 ar  
    10     4    24 ar  
    11     5    20 ar  
    12     6     7 ar  
    13     6    39 1   
    14     7    24 ar  
    15     7    40 1   
    16     8     9 ar  
    17     8    11 ar  
    18     8    25 1   
    19     9    26 ar  
    20     9    27 1   
    21    10    26 ar  
    22    10    28 ar  
    23    10    29 1   
    24    11    28 ar  
    25    11    41 1   
    26    12    14 1   
    27    12    32 2   
    28    13    32 1   
    29    13    34 1   
    30    13    64 2   
    31    14    42 1   
    32    14    43 1   
    33    14    44 1   
    34    15    34 1   
    35    15    35 ar  
    36    15    37 ar  
    37    16    35 ar  
    38    16    36 ar  
    39    16    45 1   
    40    17    36 ar  
    41    17    37 ar  
    42    17    46 1   
    43    18    47 1   
    44    18    48 1   
    45    18    49 1   
    46    18    63 1   
    47    19    20 ar  
    48    19    21 ar  
    49    19    63 1   
    50    20    50 1   
    51    21    22 1   
    52    22    23 1   
    53    23    51 1   
    54    23    52 1   
    55    23    53 1   
    56    24    25 1   
    57    26    54 1   
    58    28    55 1   
    59    29    30 1   
    60    29    56 1   
    61    30    31 2   
    62    30    32 1   
    63    33    57 1   
    64    33    58 1   
    65    33    59 1   
    66    35    60 1   
    67    36    61 1   
    68    37    62 1   
@<TRIPOS>SUBSTRUCTURE
     1 03X         1 TEMP              0 ****  ****    0 ROOT
