@<TRIPOS>MOLECULE
03Y
   16    15     1     0     0
SMALL
bcc


@<TRIPOS>ATOM
      1 CB          -2.3160   -41.0260    21.0640 c3         1 03Y       0.082700
      2 C           -0.7170   -39.2440    21.8010 c          1 03Y       0.912600
      3 CA          -2.0000   -39.5310    20.9550 c3         1 03Y       0.029200
      4 CM          -3.1920   -38.7650    21.5270 c3         1 03Y      -0.057100
      5 N           -1.8840   -39.1840    19.5430 n8         1 03Y      -0.889800
      6 O           -0.8390   -39.3520    23.0380 o          1 03Y      -0.827300
      7 SG          -0.9080   -42.0400    20.4730 sh         1 03Y      -0.395900
      8 HB2         -2.5310   -41.2890    22.0980 h1         1 03Y       0.044700
      9 HB3         -3.1880   -41.2610    20.4520 h1         1 03Y       0.044700
     10 H21         -3.0240   -37.6870    21.4710 hc         1 03Y       0.019700
     11 H21A        -4.0990   -38.9890    20.9620 hc         1 03Y       0.019700
     12 H21B        -3.3660   -39.0200    22.5700 hc         1 03Y       0.019700
     13 H           -1.7250   -38.1850    19.4740 hn         1 03Y       0.335800
     14 H2          -1.0320   -39.5960    19.1790 hn         1 03Y       0.335800
     15 HG          -1.5840   -43.1830    20.3120 hs         1 03Y       0.152800
     16 OXT          0.3230   -38.9620    21.1740 o          1 03Y      -0.827300
@<TRIPOS>BOND
     1     1     3 1   
     2     1     7 1   
     3     1     8 1   
     4     1     9 1   
     5     2     3 1   
     6     2     6 1   
     7     2    16 1   
     8     3     4 1   
     9     3     5 1   
    10     4    10 1   
    11     4    11 1   
    12     4    12 1   
    13     5    13 1   
    14     5    14 1   
    15     7    15 1   
@<TRIPOS>SUBSTRUCTURE
     1 03Y         1 TEMP              0 ****  ****    0 ROOT
