@<TRIPOS>MOLECULE
03Z
   39    41     1     0     0
SMALL
No Charge or Current Charge


@<TRIPOS>ATOM
      1 C1          -7.3290    -1.7210     0.2960 ca         1 03Z      -0.095000
      2 N1          -0.5020     1.1710    -0.1690 nc         1 03Z      -0.792000
      3 O1           6.7570     1.3970     0.3370 o          1 03Z      -0.546000
      4 S1          -2.2240    -0.8180    -0.1580 ss         1 03Z      -0.058400
      5 C2          -7.4130    -0.6850    -0.6490 ca         1 03Z      -0.118500
      6 N2          -1.7130     2.9920    -0.0900 nv         1 03Z      -1.046900
      7 O2           7.1430    -0.8290    -0.8860 o          1 03Z      -0.546000
      8 S2           6.4530    -0.0150     0.1110 sy         1 03Z       1.133600
      9 C3          -6.3970     0.2840    -0.7250 ca         1 03Z      -0.075000
     10 N3           0.5220    -0.8920    -0.3080 nu         1 03Z      -0.918900
     11 O3          -4.5200     2.4610     0.0740 o          1 03Z      -0.588100
     12 C4          -5.2140    -0.8160     1.0960 ca         1 03Z      -0.075000
     13 N4           6.7940    -0.7580     1.5270 n8         1 03Z      -1.002100
     14 C5          -6.2310    -1.7830     1.1700 ca         1 03Z      -0.118500
     15 C10         -5.2820     0.2180     0.1360 ca         1 03Z      -0.152600
     16 C11         -4.2110     1.2760     0.0520 c          1 03Z       0.646300
     17 C12         -2.8040     0.8390    -0.0490 cd         1 03Z      -0.464600
     18 C13         -1.7390     1.6780    -0.1040 cc         1 03Z       0.689900
     19 C14         -0.5970    -0.1360    -0.1770 cd         1 03Z       0.754300
     20 C15          1.8910    -0.6450    -0.2020 ca         1 03Z       0.359000
     21 C16          2.4140     0.4430     0.5190 ca         1 03Z      -0.175500
     22 C17          3.8020     0.6390     0.6140 ca         1 03Z       0.022500
     23 C18          4.6830    -0.2660    -0.0080 ca         1 03Z      -0.308500
     24 C19          4.1660    -1.3670    -0.7190 ca         1 03Z       0.022500
     25 C20          2.7760    -1.5520    -0.8060 ca         1 03Z      -0.175500
     26 H1          -8.1160    -2.4700     0.3560 ha         1 03Z       0.113000
     27 H2          -8.2660    -0.6320    -1.3220 ha         1 03Z       0.115000
     28 HN2         -0.8360     3.3890     0.2180 hn         1 03Z       0.518500
     29 HN2A        -2.5660     3.4420     0.2230 hn         1 03Z       0.518500
     30 H3          -6.4730     1.0840    -1.4590 ha         1 03Z       0.122500
     31 HN3          0.2880    -1.8400    -0.5870 hn         1 03Z       0.511000
     32 H4          -4.3790    -0.8650     1.7920 ha         1 03Z       0.122500
     33 HN4          7.5600    -1.3650     1.2460 hn         1 03Z       0.471500
     34 HN4A         6.0070    -1.3920     1.6340 hn         1 03Z       0.471500
     35 H5          -6.1700    -2.5790     1.9100 ha         1 03Z       0.115000
     36 H16          1.7540     1.1380     1.0250 ha         1 03Z       0.137000
     37 H17          4.1860     1.4890     1.1770 ha         1 03Z       0.138500
     38 H19          4.8310    -2.0810    -1.2050 ha         1 03Z       0.138500
     39 H20          2.3890    -2.4040    -1.3570 ha         1 03Z       0.137000
@<TRIPOS>BOND
     1     1     5 ar  
     2     1    14 ar  
     3     1    26 1   
     4     2    18 1   
     5     2    19 2   
     6     3     8 2   
     7     4    17 1   
     8     4    19 1   
     9     5     9 ar  
    10     5    27 1   
    11     6    18 1   
    12     6    28 1   
    13     6    29 1   
    14     7     8 2   
    15     8    13 1   
    16     8    23 1   
    17     9    15 ar  
    18     9    30 1   
    19    10    19 1   
    20    10    20 1   
    21    10    31 1   
    22    11    16 2   
    23    12    14 ar  
    24    12    15 ar  
    25    12    32 1   
    26    13    33 1   
    27    13    34 1   
    28    14    35 1   
    29    15    16 1   
    30    16    17 1   
    31    17    18 2   
    32    20    21 ar  
    33    20    25 ar  
    34    21    22 ar  
    35    21    36 1   
    36    22    23 ar  
    37    22    37 1   
    38    23    24 ar  
    39    24    25 ar  
    40    24    38 1   
    41    25    39 1   
@<TRIPOS>SUBSTRUCTURE
     1 03Z         1 TEMP              0 ****  ****    0 ROOT
