@<TRIPOS>MOLECULE
03Z
   39    41     1     0     0
SMALL
bcc


@<TRIPOS>ATOM
      1 C1          -7.2140    -1.7000     0.0210 ca         1 03Z      -0.113000
      2 N1          -0.4600     1.1640     0.1440 nc         1 03Z      -0.792000
      3 O1           6.7100     1.0370    -0.5260 o          1 03Z      -0.616800
      4 S1          -2.2000    -0.7100    -0.2340 ss         1 03Z      -0.203300
      5 C2          -7.2880    -0.5480    -0.7540 ca         1 03Z      -0.136500
      6 N2          -1.7260     3.0450     0.5870 nv         1 03Z      -0.936500
      7 O2           6.9310    -1.4420    -0.7500 o          1 03Z      -0.616800
      8 S2           6.3280    -0.2960    -0.0820 sy         1 03Z       1.275200
      9 C3          -6.2910     0.4110    -0.6710 ca         1 03Z      -0.093000
     10 N3           0.4460    -0.9450    -0.3750 nu         1 03Z      -0.725300
     11 O3          -4.4950     2.4530     0.4050 o          1 03Z      -0.588100
     12 C4          -5.1290    -0.9390     0.9470 ca         1 03Z      -0.093000
     13 N4           6.5680    -0.3060     1.5530 n8         1 03Z      -0.891700
     14 C5          -6.1390    -1.8890     0.8780 ca         1 03Z      -0.136500
     15 C10         -5.1950     0.2140     0.1680 ca         1 03Z      -0.152600
     16 C11         -4.1500     1.2760     0.2630 c          1 03Z       0.646300
     17 C12         -2.7820     0.8960     0.1700 cd         1 03Z      -0.385000
     18 C13         -1.6760     1.7450     0.3120 cc         1 03Z       0.755200
     19 C14         -0.5790    -0.0980    -0.1470 cd         1 03Z       0.754300
     20 C15          1.8140    -0.7200    -0.2970 ca         1 03Z       0.220600
     21 C16          2.3920     0.4970     0.0790 ca         1 03Z      -0.193500
     22 C17          3.7680     0.6100     0.1410 ca         1 03Z       0.004500
     23 C18          4.5770    -0.4740    -0.1720 ca         1 03Z      -0.308500
     24 C19          4.0140    -1.6830    -0.5560 ca         1 03Z       0.004500
     25 C20          2.6410    -1.8020    -0.6150 ca         1 03Z      -0.193500
     26 H1          -7.9970    -2.4440    -0.0400 ha         1 03Z       0.131000
     27 H2          -8.1260    -0.3970    -1.4220 ha         1 03Z       0.133000
     28 HN2         -0.8760     3.5590     0.7410 hn         1 03Z       0.463300
     29 HN2A        -2.6130     3.4950     0.7370 hn         1 03Z       0.463300
     30 H3          -6.3550     1.3110    -1.2700 ha         1 03Z       0.140500
     31 HN3          0.1900    -1.8890    -0.6270 hn         1 03Z       0.455800
     32 H4          -4.3070    -1.0880     1.6360 ha         1 03Z       0.140500
     33 HN4          7.4830     0.0640     1.7950 hn         1 03Z       0.416300
     34 HN4A         6.4460    -1.2280     1.9600 hn         1 03Z       0.416300
     35 H5          -6.0870    -2.7740     1.4980 ha         1 03Z       0.133000
     36 H16          1.7780     1.3490     0.3200 ha         1 03Z       0.155000
     37 H17          4.1990     1.5560     0.4390 ha         1 03Z       0.156500
     38 H19          4.6310    -2.5340    -0.8090 ha         1 03Z       0.156500
     39 H20          2.2040    -2.7470    -0.9150 ha         1 03Z       0.155000
@<TRIPOS>BOND
     1     1     5 ar  
     2     1    14 ar  
     3     1    26 1   
     4     2    18 1   
     5     2    19 2   
     6     3     8 2   
     7     4    17 1   
     8     4    19 1   
     9     5     9 ar  
    10     5    27 1   
    11     6    18 1   
    12     6    28 1   
    13     6    29 1   
    14     7     8 2   
    15     8    13 1   
    16     8    23 1   
    17     9    15 ar  
    18     9    30 1   
    19    10    19 1   
    20    10    20 1   
    21    10    31 1   
    22    11    16 2   
    23    12    14 ar  
    24    12    15 ar  
    25    12    32 1   
    26    13    33 1   
    27    13    34 1   
    28    14    35 1   
    29    15    16 1   
    30    16    17 1   
    31    17    18 2   
    32    20    21 ar  
    33    20    25 ar  
    34    21    22 ar  
    35    21    36 1   
    36    22    23 ar  
    37    22    37 1   
    38    23    24 ar  
    39    24    25 ar  
    40    24    38 1   
    41    25    39 1   
@<TRIPOS>SUBSTRUCTURE
     1 03Z         1 TEMP              0 ****  ****    0 ROOT
