@<TRIPOS>MOLECULE
040
   24    24     1     0     0
SMALL
No Charge or Current Charge


@<TRIPOS>ATOM
      1 C01          1.8370     2.0450     0.4730 c3         1 040      -0.049800
      2 C02          2.1620     0.5690     0.2670 ca         1 040      -0.013300
      3 C03          1.4080    -0.2430    -0.6200 ca         1 040      -0.139600
      4 C04          0.2670     0.3250    -1.4260 c          1 040       0.597700
      5 O05          0.4280     1.2920    -2.1600 o          1 040      -0.551100
      6 C06         -1.0950    -0.3380    -1.3190 c3         1 040      -0.295400
      7 C07         -1.8920     0.4660    -0.2900 c          1 040       0.437100
      8 C08         -1.7790     0.0220     1.2670 c          1 040       0.654000
      9 O09         -1.6820    -1.1730     1.5330 o          1 040      -0.690500
     10 O10         -1.8010     0.9000     2.1270 o          1 040      -0.690500
     11 O11         -2.5610     1.4370    -0.6510 o          1 040      -0.555100
     12 C12          1.7380    -1.6100    -0.7560 ca         1 040      -0.073000
     13 C13          2.8000    -2.1650    -0.0250 ca         1 040      -0.133000
     14 C14          3.5440    -1.3620     0.8500 ca         1 040      -0.103000
     15 C15          3.2260    -0.0030     0.9940 ca         1 040      -0.135000
     16 H01          2.1370     2.6390    -0.3980 hc         1 040       0.048700
     17 H01A         0.7640     2.2000     0.6360 hc         1 040       0.048700
     18 H01B         2.3570     2.4570     1.3460 hc         1 040       0.048700
     19 H06         -1.6000    -0.2920    -2.2900 hc         1 040       0.086700
     20 H06A        -0.9580    -1.3510    -0.9300 hc         1 040       0.086700
     21 H12          1.1790    -2.2440    -1.4410 ha         1 040       0.118000
     22 H13          3.0470    -3.2180    -0.1400 ha         1 040       0.104000
     23 H14          4.3680    -1.7910     1.4160 ha         1 040       0.098000
     24 H15          3.8090     0.6090     1.6780 ha         1 040       0.100000
@<TRIPOS>BOND
     1     1     2 1   
     2     1    16 1   
     3     1    17 1   
     4     1    18 1   
     5     2     3 ar  
     6     2    15 ar  
     7     3     4 1   
     8     3    12 ar  
     9     4     5 2   
    10     4     6 1   
    11     6     7 1   
    12     6    19 1   
    13     6    20 1   
    14     7     8 1   
    15     7    11 2   
    16     8     9 1   
    17     8    10 1   
    18    12    13 ar  
    19    12    21 1   
    20    13    14 ar  
    21    13    22 1   
    22    14    15 ar  
    23    14    23 1   
    24    15    24 1   
@<TRIPOS>SUBSTRUCTURE
     1 040         1 TEMP              0 ****  ****    0 ROOT
