@<TRIPOS>MOLECULE
040
   24    24     1     0     0
SMALL
abcg2


@<TRIPOS>ATOM
      1 C01          2.2330     2.2720    -0.0850 c3         1 040      -0.049800
      2 C02          2.4050     0.7820     0.0070 ca         1 040      -0.013300
      3 C03          1.4620    -0.1360    -0.4880 ca         1 040      -0.139600
      4 C04          0.2460     0.3190    -1.2170 c          1 040       0.597700
      5 O05          0.2850     1.2510    -1.9910 o          1 040      -0.551100
      6 C06         -1.0520    -0.3920    -0.9270 c3         1 040      -0.295400
      7 C07         -1.6080     0.0750     0.4020 c          1 040       0.437100
      8 C08         -2.9290    -0.5930     0.8840 c          1 040       0.654000
      9 O09         -3.3700    -1.4830     0.1390 o          1 040      -0.690500
     10 O10         -3.3850    -0.1580     1.9480 o          1 040      -0.690500
     11 O11         -1.0610     0.9360     1.0460 o          1 040      -0.555100
     12 C12          1.6780    -1.5050    -0.3330 ca         1 040      -0.073000
     13 C13          2.8230    -1.9870     0.2810 ca         1 040      -0.133000
     14 C14          3.7540    -1.0880     0.7760 ca         1 040      -0.103000
     15 C15          3.5340     0.2760     0.6450 ca         1 040      -0.135000
     16 H01          2.4100     2.6390    -1.0950 hc         1 040       0.048700
     17 H01A         1.2290     2.5830     0.2020 hc         1 040       0.048700
     18 H01B         2.9390     2.7710     0.5780 hc         1 040       0.048700
     19 H06         -1.7850    -0.1710    -1.7080 hc         1 040       0.086700
     20 H06A        -0.9500    -1.4780    -0.9050 hc         1 040       0.086700
     21 H12          0.9550    -2.2140    -0.7150 ha         1 040       0.118000
     22 H13          2.9810    -3.0530     0.3760 ha         1 040       0.104000
     23 H14          4.6480    -1.4440     1.2700 ha         1 040       0.098000
     24 H15          4.2610     0.9700     1.0520 ha         1 040       0.100000
@<TRIPOS>BOND
     1     1     2 1   
     2     1    16 1   
     3     1    17 1   
     4     1    18 1   
     5     2     3 ar  
     6     2    15 ar  
     7     3     4 1   
     8     3    12 ar  
     9     4     5 2   
    10     4     6 1   
    11     6     7 1   
    12     6    19 1   
    13     6    20 1   
    14     7     8 1   
    15     7    11 2   
    16     8     9 1   
    17     8    10 1   
    18    12    13 ar  
    19    12    21 1   
    20    13    14 ar  
    21    13    22 1   
    22    14    15 ar  
    23    14    23 1   
    24    15    24 1   
@<TRIPOS>SUBSTRUCTURE
     1 040         1 TEMP              0 ****  ****    0 ROOT
