@<TRIPOS>MOLECULE
041
   30    32     1     0     0
SMALL
abcg2


@<TRIPOS>ATOM
      1 C1           0.2680     0.0760     4.1550 ca         1 041      -0.122000
      2 C2           0.9970     0.0480     2.9660 ca         1 041       0.010200
      3 C3           0.2210     0.0660     1.8170 ca         1 041      -0.001900
      4 C4          -1.1660     0.1070     1.8110 ca         1 041       0.102400
      5 C5          -1.8790     0.1330     3.0020 ca         1 041      -0.156000
      6 C6          -1.1310     0.1170     4.1770 ca         1 041       0.132100
      7 O9           0.6270     0.0460     0.5200 os         1 041      -0.274700
      8 C10         -0.5130     0.0770    -0.2010 cc         1 041       0.604200
      9 N11         -1.5970     0.1140     0.5000 nd         1 041      -0.582100
     10 C12         -0.4010     0.0650    -1.6470 ca         1 041      -0.139900
     11 C13         -1.5560     0.0970    -2.4260 ca         1 041      -0.032000
     12 C14         -1.4740     0.0850    -3.8060 ca         1 041      -0.199000
     13 C15         -0.2380     0.0410    -4.4450 ca         1 041       0.126100
     14 C16          0.9060     0.0100    -3.6470 ca         1 041       0.128000
     15 C17          0.8460     0.0220    -2.2760 ca         1 041      -0.080000
     16 O21         -1.7120     0.1400     5.3950 oh         1 041      -0.533100
     17 F22          2.0980    -0.0320    -4.2580 f          1 041      -0.162000
     18 O23         -0.0740     0.0260    -5.7710 oh         1 041      -0.508100
     19 C24          2.4600     0.0030     2.8940 ce         1 041      -0.163200
     20 C25          3.2960    -0.0680     3.9280 c2         1 041      -0.291000
     21 H1           0.7890     0.0680     5.1050 ha         1 041       0.135000
     22 H5          -2.9610     0.1660     3.0130 ha         1 041       0.135000
     23 H13         -2.5270     0.1310    -1.9520 ha         1 041       0.143000
     24 H14         -2.3810     0.1110    -4.3990 ha         1 041       0.123000
     25 H17          1.7690    -0.0040    -1.7120 ha         1 041       0.148000
     26 H21         -2.6710     0.1640     5.3100 ho         1 041       0.468000
     27 H23         -0.9280     0.0520    -6.2190 ho         1 041       0.473000
     28 H24          2.8830     0.0310     1.8950 ha         1 041       0.183000
     29 H251         4.3640    -0.0940     3.7670 ha         1 041       0.166500
     30 H252         2.9650    -0.1040     4.9580 ha         1 041       0.166500
@<TRIPOS>BOND
     1     1     2 ar  
     2     1     6 ar  
     3     1    21 1   
     4     2     3 ar  
     5     2    19 1   
     6     3     4 ar  
     7     3     7 1   
     8     4     5 ar  
     9     4     9 1   
    10     5     6 ar  
    11     5    22 1   
    12     6    16 1   
    13     7     8 1   
    14     8     9 2   
    15     8    10 1   
    16    10    11 ar  
    17    10    15 ar  
    18    11    12 ar  
    19    11    23 1   
    20    12    13 ar  
    21    12    24 1   
    22    13    14 ar  
    23    13    18 1   
    24    14    15 ar  
    25    14    17 1   
    26    15    25 1   
    27    16    26 1   
    28    18    27 1   
    29    19    20 2   
    30    19    28 1   
    31    20    29 1   
    32    20    30 1   
@<TRIPOS>SUBSTRUCTURE
     1 041         1 TEMP              0 ****  ****    0 ROOT
