@<TRIPOS>MOLECULE
041
   30    32     1     0     0
SMALL
No Charge or Current Charge


@<TRIPOS>ATOM
      1 C1           0.2760     0.0640     4.2140 ca         1 041      -0.122000
      2 C2           0.9970     0.0340     2.9950 ca         1 041       0.010200
      3 C3           0.2360     0.0560     1.8120 ca         1 041      -0.001900
      4 C4          -1.1280     0.1030     1.8130 ca         1 041       0.102400
      5 C5          -1.8550     0.1330     3.0060 ca         1 041      -0.156000
      6 C6          -1.1370     0.1130     4.2180 ca         1 041       0.132100
      7 O9           0.7050     0.0340     0.5390 os         1 041      -0.274700
      8 C10         -0.4790     0.0720    -0.1900 cc         1 041       0.604200
      9 N11         -1.6170     0.1140     0.5270 nd         1 041      -0.582100
     10 C12         -0.3900     0.0630    -1.6580 ca         1 041      -0.139900
     11 C13         -1.5630     0.1000    -2.4460 ca         1 041      -0.032000
     12 C14         -1.4860     0.0920    -3.8520 ca         1 041      -0.199000
     13 C15         -0.2360     0.0460    -4.4910 ca         1 041       0.126100
     14 C16          0.9400     0.0080    -3.7130 ca         1 041       0.128000
     15 C17          0.8650     0.0170    -2.3100 ca         1 041      -0.080000
     16 O21         -1.8020     0.1410     5.4090 oh         1 041      -0.533100
     17 F22          2.1550    -0.0360    -4.3100 f          1 041      -0.162000
     18 O23         -0.1770     0.0380    -5.8590 oh         1 041      -0.508100
     19 C24          2.4900    -0.0180     2.9350 ce         1 041      -0.163200
     20 C25          3.3330    -0.0420     3.9930 c2         1 041      -0.291000
     21 H1           0.7970     0.0500     5.1650 ha         1 041       0.135000
     22 H5          -2.9410     0.1700     2.9880 ha         1 041       0.135000
     23 H13         -2.5430     0.1360    -1.9720 ha         1 041       0.143000
     24 H14         -2.4030     0.1210    -4.4350 ha         1 041       0.123000
     25 H17          1.7900    -0.0130    -1.7390 ha         1 041       0.148000
     26 H21         -2.7670     0.1730     5.2290 ho         1 041       0.468000
     27 H23         -1.0910     0.0680    -6.2130 ho         1 041       0.473000
     28 H24          2.9020    -0.0360     1.9230 ha         1 041       0.183000
     29 H251         4.4140    -0.0800     3.8490 ha         1 041       0.166500
     30 H252         2.9920    -0.0260     5.0270 ha         1 041       0.166500
@<TRIPOS>BOND
     1     1     2 ar  
     2     1     6 ar  
     3     1    21 1   
     4     2     3 ar  
     5     2    19 1   
     6     3     4 ar  
     7     3     7 1   
     8     4     5 ar  
     9     4     9 1   
    10     5     6 ar  
    11     5    22 1   
    12     6    16 1   
    13     7     8 1   
    14     8     9 2   
    15     8    10 1   
    16    10    11 ar  
    17    10    15 ar  
    18    11    12 ar  
    19    11    23 1   
    20    12    13 ar  
    21    12    24 1   
    22    13    14 ar  
    23    13    18 1   
    24    14    15 ar  
    25    14    17 1   
    26    15    25 1   
    27    16    26 1   
    28    18    27 1   
    29    19    20 2   
    30    19    28 1   
    31    20    29 1   
    32    20    30 1   
@<TRIPOS>SUBSTRUCTURE
     1 041         1 TEMP              0 ****  ****    0 ROOT
