@<TRIPOS>MOLECULE
042
   51    51     1     0     0
SMALL
abcg2


@<TRIPOS>ATOM
      1 C10         -5.5720     3.2590     0.2960 c3         1 042       0.168600
      2 C11         -5.1950     4.3380     1.2800 c3         1 042      -0.097100
      3 C3          -3.3840    -0.8650    -0.5330 cx         1 042       0.011300
      4 C2          -4.2210    -0.1550     0.4480 cx         1 042       0.025300
      5 O1          -4.5690    -1.4230    -0.0390 op         1 042      -0.370000
      6 O4          -2.0830    -2.1950     0.9530 o          1 042      -0.599100
      7 N1          -1.0430    -1.1820    -0.7940 ns         1 042      -0.476900
      8 C5           0.3130    -1.5430    -0.4670 c3         1 042      -0.023300
      9 C6           1.2060    -0.3190    -0.6430 c          1 042       0.602100
     10 O5           0.8870     0.6070    -1.3750 o          1 042      -0.609100
     11 C12          0.8280    -2.6930    -1.3620 c3         1 042       0.166300
     12 O8           0.7540    -2.3400    -2.7210 oh         1 042      -0.610000
     13 C13          0.1050    -3.9980    -1.0740 c3         1 042      -0.129100
     14 N2           2.3430    -0.3560     0.0580 ns         1 042      -0.453900
     15 C7           3.4400     0.5480    -0.2220 c3         1 042      -0.037300
     16 C8           3.9700     0.3670    -1.6670 c          1 042       0.717000
     17 O7           4.5420     1.3600    -2.1610 o          1 042      -0.719000
     18 C14          4.5440     0.3420     0.8330 c3         1 042      -0.045700
     19 C16          5.5240     1.5170     0.8540 c3         1 042      -0.071400
     20 C15          5.2700    -0.9940     0.6740 c3         1 042      -0.078100
     21 C17          6.4910     1.4810     2.0300 c3         1 042      -0.085100
     22 O6           3.8070    -0.7460    -2.1950 o          1 042      -0.719000
     23 C9          -5.0630     0.9770    -0.0570 c          1 042       0.602100
     24 O2          -5.7830     0.8970    -1.0180 o          1 042      -0.476000
     25 O3          -4.8790     2.0540     0.6760 os         1 042      -0.437100
     26 H101        -6.6480     3.0770     0.3050 h1         1 042       0.048700
     27 H102        -5.2830     3.5350    -0.7200 h1         1 042       0.048700
     28 H111        -5.5020     4.0830     2.2940 hc         1 042       0.047700
     29 H112        -4.1220     4.5290     1.2750 hc         1 042       0.047700
     30 H113        -5.6990     5.2620     1.0000 hc         1 042       0.047700
     31 H3          -3.4100    -0.5400    -1.5720 h1         1 042       0.109700
     32 H2          -3.8950    -0.1050     1.4840 h1         1 042       0.130700
     33 HN1         -1.1580    -0.5170    -1.5460 hn         1 042       0.341500
     34 H5           0.3460    -1.8740     0.5740 h1         1 042       0.077700
     35 H12          1.8920    -2.8180    -1.1440 h1         1 042       0.104700
     36 HO8         -0.1660    -2.4050    -3.0010 ho         1 042       0.419000
     37 H131        -0.9600    -3.9250    -1.3000 hc         1 042       0.038033
     38 H132         0.5230    -4.8010    -1.6810 hc         1 042       0.038033
     39 H133         0.2060    -4.2820    -0.0260 hc         1 042       0.038033
     40 HN2          2.5460    -1.1940     0.5800 hn         1 042       0.290500
     41 H7           3.0700     1.5720    -0.1110 h1         1 042       0.058700
     42 H14          4.0340     0.3340     1.8060 hc         1 042       0.008700
     43 H161         6.0820     1.5440    -0.0840 hc         1 042       0.058200
     44 H162         4.9500     2.4480     0.8940 hc         1 042       0.058200
     45 H151         5.9170    -1.1860     1.5300 hc         1 042       0.026700
     46 H152         4.5850    -1.8390     0.5970 hc         1 042       0.026700
     47 H153         5.8960    -1.0000    -0.2200 hc         1 042       0.026700
     48 H171         5.9580     1.4300     2.9820 hc         1 042       0.016367
     49 H172         7.1620     0.6230     1.9820 hc         1 042       0.016367
     50 H173         7.1120     2.3780     2.0490 hc         1 042       0.016367
     51 C4          -2.1070    -1.4950    -0.0430 c          1 042       0.607100
@<TRIPOS>BOND
     1     1     2 1   
     2     1    25 1   
     3     1    26 1   
     4     1    27 1   
     5     2    28 1   
     6     2    29 1   
     7     2    30 1   
     8     3     4 1   
     9     3     5 1   
    10     3    31 1   
    11     3    51 1   
    12     4     5 1   
    13     4    23 1   
    14     4    32 1   
    15     6    51 2   
    16     7     8 1   
    17     7    33 1   
    18     7    51 1   
    19     8     9 1   
    20     8    11 1   
    21     8    34 1   
    22     9    10 2   
    23     9    14 1   
    24    11    12 1   
    25    11    13 1   
    26    11    35 1   
    27    12    36 1   
    28    13    37 1   
    29    13    38 1   
    30    13    39 1   
    31    14    15 1   
    32    14    40 1   
    33    15    16 1   
    34    15    18 1   
    35    15    41 1   
    36    16    17 1   
    37    16    22 1   
    38    18    19 1   
    39    18    20 1   
    40    18    42 1   
    41    19    21 1   
    42    19    43 1   
    43    19    44 1   
    44    20    45 1   
    45    20    46 1   
    46    20    47 1   
    47    21    48 1   
    48    21    49 1   
    49    21    50 1   
    50    23    24 2   
    51    23    25 1   
@<TRIPOS>SUBSTRUCTURE
     1 042         1 TEMP              0 ****  ****    0 ROOT
