@<TRIPOS>MOLECULE
042
   51    51     1     0     0
SMALL
No Charge or Current Charge


@<TRIPOS>ATOM
      1 C10         -5.3080     3.3870     0.8130 c3         1 042       0.168600
      2 C11         -5.6960     4.1270     2.1030 c3         1 042      -0.097100
      3 C3          -3.1730    -1.0010     0.0280 cx         1 042       0.011300
      4 C2          -3.1440     0.3350     0.7270 cx         1 042       0.025300
      5 O1          -3.8140    -0.8110     1.3200 op         1 042      -0.370000
      6 O4          -1.7550    -2.8750     0.5850 o          1 042      -0.599100
      7 N1          -0.8900    -1.2600    -0.7800 ns         1 042      -0.476900
      8 C5           0.4770    -1.8260    -0.9530 c3         1 042      -0.023300
      9 C6           1.5270    -0.6830    -0.9790 c          1 042       0.602100
     10 O5           1.2210     0.4990    -1.1010 o          1 042      -0.609100
     11 C12          0.6060    -2.7310    -2.2150 c3         1 042       0.166300
     12 O8           0.1490    -2.0260    -3.3750 oh         1 042      -0.610000
     13 C13         -0.1810    -4.0530    -2.1080 c3         1 042      -0.129100
     14 N2           2.8390    -1.0900    -0.8370 ns         1 042      -0.453900
     15 C7           4.0190    -0.1920    -0.7840 c3         1 042      -0.037300
     16 C8           5.3110    -0.9610    -1.2170 c          1 042       0.717000
     17 O7           6.0730    -0.4070    -1.9980 o          1 042      -0.719000
     18 C14          4.1560     0.5230     0.5990 c3         1 042      -0.045700
     19 C16          5.2640     1.6150     0.5700 c3         1 042      -0.071400
     20 C15          4.3390    -0.4740     1.7740 c3         1 042      -0.078100
     21 C17          5.3010     2.5330     1.8110 c3         1 042      -0.085100
     22 O6           5.4300    -2.1370    -0.8940 o          1 042      -0.719000
     23 C9          -4.0160     1.4510     0.1910 c          1 042       0.602100
     24 O2          -4.2270     1.6300    -1.0030 o          1 042      -0.476000
     25 O3          -4.4850     2.2700     1.1870 os         1 042      -0.437100
     26 H101        -6.2170     3.0500     0.2960 h1         1 042       0.048700
     27 H102        -4.7620     4.0710     0.1490 h1         1 042       0.048700
     28 H111        -6.2550     3.4640     2.7740 hc         1 042       0.047700
     29 H112        -4.8020     4.4850     2.6270 hc         1 042       0.047700
     30 H113        -6.3270     4.9920     1.8690 hc         1 042       0.047700
     31 H3          -3.8550    -1.1510    -0.8080 h1         1 042       0.109700
     32 H2          -2.2340     0.6540     1.2350 h1         1 042       0.130700
     33 HN1         -1.0840    -0.3560    -1.2020 hn         1 042       0.341500
     34 H5           0.7180    -2.4330    -0.0700 h1         1 042       0.077700
     35 H12          1.6660    -2.9990    -2.3380 h1         1 042       0.104700
     36 HO8         -0.8220    -1.9290    -3.2810 ho         1 042       0.419000
     37 H131        -1.2610    -3.8730    -2.0440 hc         1 042       0.038033
     38 H132         0.0070    -4.6830    -2.9850 hc         1 042       0.038033
     39 H133         0.1280    -4.6130    -1.2170 hc         1 042       0.038033
     40 HN2          3.0070    -2.0850    -0.7320 hn         1 042       0.290500
     41 H7           3.8610     0.5850    -1.5440 h1         1 042       0.058700
     42 H14          3.2090     1.0470     0.7780 hc         1 042       0.008700
     43 H161         6.2470     1.1420     0.4530 hc         1 042       0.058200
     44 H162         5.1150     2.2460    -0.3150 hc         1 042       0.058200
     45 H151         4.2680     0.0390     2.7400 hc         1 042       0.026700
     46 H152         3.5630    -1.2480     1.7610 hc         1 042       0.026700
     47 H153         5.3170    -0.9680     1.7230 hc         1 042       0.026700
     48 H171         4.3210     2.9960     1.9820 hc         1 042       0.016367
     49 H172         5.5870     1.9760     2.7100 hc         1 042       0.016367
     50 H173         6.0350     3.3350     1.6660 hc         1 042       0.016367
     51 C4          -1.8940    -1.8140    -0.0120 c          1 042       0.607100
@<TRIPOS>BOND
     1     1     2 1   
     2     1    25 1   
     3     1    26 1   
     4     1    27 1   
     5     2    28 1   
     6     2    29 1   
     7     2    30 1   
     8     3     4 1   
     9     3     5 1   
    10     3    31 1   
    11     3    51 1   
    12     4     5 1   
    13     4    23 1   
    14     4    32 1   
    15     6    51 2   
    16     7     8 1   
    17     7    33 1   
    18     7    51 1   
    19     8     9 1   
    20     8    11 1   
    21     8    34 1   
    22     9    10 2   
    23     9    14 1   
    24    11    12 1   
    25    11    13 1   
    26    11    35 1   
    27    12    36 1   
    28    13    37 1   
    29    13    38 1   
    30    13    39 1   
    31    14    15 1   
    32    14    40 1   
    33    15    16 1   
    34    15    18 1   
    35    15    41 1   
    36    16    17 1   
    37    16    22 1   
    38    18    19 1   
    39    18    20 1   
    40    18    42 1   
    41    19    21 1   
    42    19    43 1   
    43    19    44 1   
    44    20    45 1   
    45    20    46 1   
    46    20    47 1   
    47    21    48 1   
    48    21    49 1   
    49    21    50 1   
    50    23    24 2   
    51    23    25 1   
@<TRIPOS>SUBSTRUCTURE
     1 042         1 TEMP              0 ****  ****    0 ROOT
