@<TRIPOS>MOLECULE
043
   21    21     1     0     0
SMALL
No Charge or Current Charge


@<TRIPOS>ATOM
      1 O01          1.8730    -0.5740     1.7390 o          1 043      -0.690000
      2 C02          3.0260    -0.5920     1.3160 c          1 043       0.649000
      3 O03          3.9850    -0.9430     2.0000 o          1 043      -0.690000
      4 C04          3.2940    -0.1150    -0.2110 c          1 043       0.444100
      5 O05          4.3700     0.3680    -0.5710 o          1 043      -0.543100
      6 C06          2.1440    -0.2600    -1.2120 c3         1 043      -0.283400
      7 C07          1.3660     1.0530    -1.1940 c          1 043       0.633700
      8 O08          1.8250     2.0320    -1.7710 o          1 043      -0.545100
      9 C09          0.0290     1.1490    -0.4910 ca         1 043      -0.110600
     10 C10         -0.3410     2.3690     0.1190 ca         1 043      -0.040000
     11 C11         -1.5780     2.4960     0.7750 ca         1 043      -0.132000
     12 C12         -2.4660     1.4100     0.8230 ca         1 043      -0.085000
     13 C13         -2.1150     0.1980     0.2090 ca         1 043      -0.032900
     14 Br14        -3.3300    -1.2770     0.2560 br         1 043      -0.133100
     15 C15         -0.8790     0.0640    -0.4480 ca         1 043      -0.048000
     16 H06          2.5580    -0.4160    -2.2140 hc         1 043       0.059200
     17 H06A         1.5040    -1.0770    -0.8710 hc         1 043       0.059200
     18 H10          0.3350     3.2220     0.0920 ha         1 043       0.139000
     19 H11         -1.8490     3.4390     1.2450 ha         1 043       0.107000
     20 H12         -3.4230     1.5090     1.3300 ha         1 043       0.113000
     21 H15         -0.6500    -0.8790    -0.9360 ha         1 043       0.129000
@<TRIPOS>BOND
     1     1     2 1   
     2     2     3 1   
     3     2     4 1   
     4     4     5 2   
     5     4     6 1   
     6     6     7 1   
     7     6    16 1   
     8     6    17 1   
     9     7     8 2   
    10     7     9 1   
    11     9    10 ar  
    12     9    15 ar  
    13    10    11 ar  
    14    10    18 1   
    15    11    12 ar  
    16    11    19 1   
    17    12    13 ar  
    18    12    20 1   
    19    13    14 1   
    20    13    15 ar  
    21    15    21 1   
@<TRIPOS>SUBSTRUCTURE
     1 043         1 TEMP              0 ****  ****    0 ROOT
