@<TRIPOS>MOLECULE
043
   21    21     1     0     0
SMALL
bcc


@<TRIPOS>ATOM
      1 O01          2.3410     0.1340     1.5920 o          1 043      -0.795300
      2 C02          3.4380    -0.1900     1.1030 c          1 043       0.859600
      3 O03          4.5320    -0.3450     1.6560 o          1 043      -0.795300
      4 C04          3.3970    -0.4350    -0.4310 c          1 043       0.444100
      5 O05          4.3780    -0.7140    -1.0690 o          1 043      -0.543100
      6 C06          2.0130    -0.3350    -1.0380 c3         1 043      -0.283400
      7 C07          1.4230     1.0070    -0.6780 c          1 043       0.633700
      8 O08          2.0970     2.0060    -0.8260 o          1 043      -0.545100
      9 C09          0.0080     1.1140    -0.2240 ca         1 043      -0.110600
     10 C10         -0.4170     2.3000     0.3730 ca         1 043      -0.058000
     11 C11         -1.7330     2.4430     0.7770 ca         1 043      -0.150000
     12 C12         -2.6510     1.4210     0.5730 ca         1 043      -0.103000
     13 C13         -2.2230     0.2510    -0.0350 ca         1 043      -0.032900
     14 BR14        -3.4590    -1.1450    -0.3330 br         1 043      -0.133100
     15 C15         -0.9040     0.0830    -0.4280 ca         1 043      -0.066000
     16 H06          2.0690    -0.4190    -2.1260 hc         1 043       0.059200
     17 H06A         1.4200    -1.1720    -0.6680 hc         1 043       0.059200
     18 H10          0.2850     3.1060     0.5310 ha         1 043       0.157000
     19 H11         -2.0580     3.3590     1.2530 ha         1 043       0.125000
     20 H12         -3.6790     1.5450     0.8850 ha         1 043       0.131000
     21 H15         -0.5970    -0.8390    -0.9020 ha         1 043       0.147000
@<TRIPOS>BOND
     1     1     2 1   
     2     2     3 1   
     3     2     4 1   
     4     4     5 2   
     5     4     6 1   
     6     6     7 1   
     7     6    16 1   
     8     6    17 1   
     9     7     8 2   
    10     7     9 1   
    11     9    10 ar  
    12     9    15 ar  
    13    10    11 ar  
    14    10    18 1   
    15    11    12 ar  
    16    11    19 1   
    17    12    13 ar  
    18    12    20 1   
    19    13    14 1   
    20    13    15 ar  
    21    15    21 1   
@<TRIPOS>SUBSTRUCTURE
     1 043         1 TEMP              0 ****  ****    0 ROOT
