@<TRIPOS>MOLECULE
044
   67    71     1     0     0
SMALL
bcc


@<TRIPOS>ATOM
      1 CAA         -9.2790    -0.2250     0.0530 ca         1 044       0.156100
      2 CAB         -4.5710    -0.5630    -1.6020 ca         1 044      -0.355300
      3 CAC         -5.4780    -0.6080    -2.6770 ca         1 044       0.458200
      4 NAD         -6.7760    -0.5470    -2.5700 nb         1 044      -0.689000
      5 CAE         -7.2970    -0.4300    -1.3210 ca         1 044       0.455600
      6 CAF         -6.4870    -0.3760    -0.1580 ca         1 044      -0.197300
      7 CAG         -5.0830    -0.4480    -0.3370 ca         1 044       0.199100
      8 CAH         -8.6930    -0.3540    -1.1870 ca         1 044      -0.231300
      9 CAI         -8.4690    -0.1690     1.2100 ca         1 044      -0.216000
     10 CAJ         -7.1070    -0.2440     1.0990 ca         1 044      -0.047000
     11 OAK         -4.3420    -0.4130     0.7890 os         1 044      -0.227200
     12 CAL         -2.9830    -0.2770     0.6820 ca         1 044       0.004100
     13 CAM         -2.1390    -1.3620     0.8340 ca         1 044      -0.075000
     14 CAN         -2.4250     0.9710     0.4660 ca         1 044       0.157900
     15 CAO         -1.0630     1.1730     0.4030 ca         1 044      -0.201000
     16 CAP         -0.2140     0.0770     0.5620 ca         1 044       0.122600
     17 CAQ         -0.7680    -1.1870     0.7780 ca         1 044      -0.198000
     18 NAR          1.1750     0.1500     0.5040 ns         1 044      -0.473100
     19 CAS          3.9630    -0.4000     0.3520 c          1 044       0.726700
     20 CAT          3.3980     0.9260     0.4520 cc         1 044      -0.401400
     21 CAU          1.9730     1.2480     0.5080 c          1 044       0.733300
     22 OAV          1.5620     2.4010     0.5490 o          1 044      -0.612100
     23 NAW          5.6090     1.1410     0.4770 na         1 044      -0.379400
     24 CAX          4.4420     1.8170     0.5060 cd         1 044       0.215800
     25 NAY          5.3240    -0.2000     0.3240 n          1 044      -0.226400
     26 CBA          6.3000    -1.1920     0.5490 ca         1 044       0.046600
     27 CBB          7.0100    -1.2220     1.7440 ca         1 044      -0.113000
     28 CBC          6.5200    -2.1490    -0.4290 ca         1 044      -0.113000
     29 CBD          7.4540    -3.1490    -0.2050 ca         1 044      -0.124500
     30 CBE          7.9600    -2.2110     1.9490 ca         1 044      -0.124500
     31 CBF          8.1780    -3.1780     0.9780 ca         1 044      -0.121000
     32 FBG         -3.2420     2.0140     0.3040 f          1 044      -0.125900
     33 CBH          4.4050     3.3000     0.5900 c3         1 044      -0.061900
     34 CBI          6.8620     1.6520    -0.0460 c3         1 044       0.213800
     35 CBJ          6.8280     1.9770    -1.5360 c3         1 044       0.125100
     36 CBK          8.1960     2.4610    -1.9920 c3         1 044      -0.133100
     37 OBL          6.4160     0.8090    -2.1980 oh         1 044      -0.586800
     38 OBM        -10.6200    -0.1580     0.0840 os         1 044      -0.314900
     39 CBN        -11.2700     0.0140     1.3210 c3         1 044       0.126700
     40 HAB         -3.5100    -0.6320    -1.7980 ha         1 044       0.153000
     41 HAC         -5.0770    -0.7010    -3.6800 h4         1 044       0.015100
     42 HAH         -9.3060    -0.3940    -2.0780 ha         1 044       0.162000
     43 HAI         -8.9020    -0.0660     2.1950 ha         1 044       0.136000
     44 HAJ         -6.5080    -0.1960     1.9970 ha         1 044       0.146000
     45 HAM         -2.5520    -2.3460     1.0090 ha         1 044       0.150000
     46 HAO         -0.6910     2.1680     0.2260 ha         1 044       0.184000
     47 HAQ         -0.1230    -2.0460     0.9100 ha         1 044       0.147000
     48 HNAR         1.6690    -0.7410     0.4840 hn         1 044       0.361500
     49 HBB          6.8160    -0.4810     2.5090 ha         1 044       0.148000
     50 HBC          5.9650    -2.1040    -1.3550 ha         1 044       0.148000
     51 HBD          7.6230    -3.9010    -0.9630 ha         1 044       0.136500
     52 HBE          8.5170    -2.2350     2.8750 ha         1 044       0.136500
     53 HBF          8.9110    -3.9550     1.1440 ha         1 044       0.135000
     54 HBH          4.0280     3.7310    -0.3390 hc         1 044       0.071700
     55 HBHA         3.7230     3.6100     1.3770 hc         1 044       0.071700
     56 HBHB         5.3820     3.7300     0.7990 hc         1 044       0.071700
     57 HBI          7.1320     2.5420     0.5220 h1         1 044       0.080700
     58 HBIA         7.6380     0.9130     0.1590 h1         1 044       0.080700
     59 HBJ          6.1020     2.7900    -1.6920 h1         1 044       0.034700
     60 HBK          8.9500     1.6840    -1.8560 hc         1 044       0.048367
     61 HBKA         8.1830     2.7350    -3.0470 hc         1 044       0.048367
     62 HBKB         8.5110     3.3440    -1.4360 hc         1 044       0.048367
     63 HOBL         6.3100     1.0000    -3.1330 ho         1 044       0.413000
     64 HBN        -11.0890    -0.8200     2.0050 h1         1 044       0.040367
     65 HBNA       -10.9770     0.9440     1.8170 h1         1 044       0.040367
     66 HBNB       -12.3350     0.0580     1.1040 h1         1 044       0.040367
     67 OAZ          3.4220    -1.4980     0.3290 o          1 044      -0.641500
@<TRIPOS>BOND
     1     1     8 ar  
     2     1     9 ar  
     3     1    38 1   
     4     2     3 ar  
     5     2     7 ar  
     6     2    40 1   
     7     3     4 ar  
     8     3    41 1   
     9     4     5 ar  
    10     5     6 ar  
    11     5     8 ar  
    12     6     7 ar  
    13     6    10 ar  
    14     7    11 1   
    15     8    42 1   
    16     9    10 ar  
    17     9    43 1   
    18    10    44 1   
    19    11    12 1   
    20    12    13 ar  
    21    12    14 ar  
    22    13    17 ar  
    23    13    45 1   
    24    14    15 ar  
    25    14    32 1   
    26    15    16 ar  
    27    15    46 1   
    28    16    17 ar  
    29    16    18 1   
    30    17    47 1   
    31    18    21 1   
    32    18    48 1   
    33    19    20 1   
    34    19    25 1   
    35    19    67 2   
    36    20    21 1   
    37    20    24 2   
    38    21    22 2   
    39    23    24 1   
    40    23    25 1   
    41    23    34 1   
    42    24    33 1   
    43    25    26 1   
    44    26    27 ar  
    45    26    28 ar  
    46    27    30 ar  
    47    27    49 1   
    48    28    29 ar  
    49    28    50 1   
    50    29    31 ar  
    51    29    51 1   
    52    30    31 ar  
    53    30    52 1   
    54    31    53 1   
    55    33    54 1   
    56    33    55 1   
    57    33    56 1   
    58    34    35 1   
    59    34    57 1   
    60    34    58 1   
    61    35    36 1   
    62    35    37 1   
    63    35    59 1   
    64    36    60 1   
    65    36    61 1   
    66    36    62 1   
    67    37    63 1   
    68    38    39 1   
    69    39    64 1   
    70    39    65 1   
    71    39    66 1   
@<TRIPOS>SUBSTRUCTURE
     1 044         1 TEMP              0 ****  ****    0 ROOT
