@<TRIPOS>MOLECULE
044
   67    71     1     0     0
SMALL
No Charge or Current Charge


@<TRIPOS>ATOM
      1 CAA         -9.2460     0.0900     0.2180 ca         1 044       0.156100
      2 CAB         -4.7260    -0.2160    -1.9810 ca         1 044      -0.272000
      3 CAC         -5.6340     0.3300    -2.8910 ca         1 044       0.392900
      4 NAD         -6.9340     0.5400    -2.5920 nb         1 044      -0.689000
      5 CAE         -7.3820     0.2070    -1.3600 ca         1 044       0.325000
      6 CAF         -6.5300    -0.3500    -0.3770 ca         1 044      -0.132000
      7 CAG         -5.1740    -0.5560    -0.6970 ca         1 044       0.199100
      8 CAH         -8.7330     0.4190    -1.0440 ca         1 044      -0.148000
      9 CAI         -8.3930    -0.4650     1.1930 ca         1 044      -0.198000
     10 CAJ         -7.0390    -0.6840     0.8960 ca         1 044      -0.029000
     11 OAK         -4.3130    -1.1080     0.2290 os         1 044      -0.227200
     12 CAL         -2.9700    -0.8030     0.2710 ca         1 044       0.004100
     13 CAM         -2.0360    -1.8490     0.2510 ca         1 044      -0.057000
     14 CAN         -2.5170     0.5310     0.3600 ca         1 044       0.193000
     15 CAO         -1.1420     0.8120     0.4070 ca         1 044      -0.183000
     16 CAP         -0.1970    -0.2370     0.3710 ca         1 044       0.030000
     17 CAQ         -0.6590    -1.5650     0.2970 ca         1 044      -0.180000
     18 NAR          1.2090    -0.0380     0.4160 ns         1 044      -0.147000
     19 CAS          4.0560    -0.4680     0.5080 c          1 044       0.584200
     20 CAT          3.4540     0.8450     0.4980 cc         1 044      -0.401400
     21 CAU          2.0000     1.1010     0.4520 c          1 044       0.666300
     22 OAV          1.5350     2.2330     0.4430 o          1 044      -0.612100
     23 NAW          5.6630     1.1870     0.5190 na         1 044      -0.379400
     24 CAX          4.4150     1.8280     0.5410 cd         1 044       0.215800
     25 NAY          5.4310    -0.2430     0.5740 n          1 044      -0.159400
     26 CBA          6.4340    -1.2060     0.9470 ca         1 044       0.046600
     27 CBB          7.4450    -0.8640     1.8700 ca         1 044      -0.095000
     28 CBC          6.4190    -2.5050     0.3990 ca         1 044      -0.095000
     29 CBD          7.4000    -3.4440     0.7640 ca         1 044      -0.106500
     30 CBE          8.4250    -1.8030     2.2360 ca         1 044      -0.106500
     31 CBF          8.4040    -3.0940     1.6820 ca         1 044      -0.103000
     32 FBG         -3.3980     1.5560     0.4170 f          1 044      -0.161000
     33 CBH          4.2710     3.3310     0.5140 c3         1 044      -0.061900
     34 CBI          6.8850     1.6430    -0.2030 c3         1 044       0.213800
     35 CBJ          6.6680     1.9760    -1.7110 c3         1 044       0.148300
     36 CBK          7.9330     2.5680    -2.3630 c3         1 044      -0.133100
     37 OBL          6.2850     0.8060    -2.4510 oh         1 044      -0.649000
     38 OBM        -10.5850     0.3280     0.4510 os         1 044      -0.338100
     39 CBN        -11.2100     0.0270     1.7120 c3         1 044       0.149900
     40 HAB         -3.6940    -0.3720    -2.2790 ha         1 044       0.135000
     41 HAC         -5.3160     0.6070    -3.8960 h4         1 044       0.015100
     42 HAH         -9.3940     0.8460    -1.7920 ha         1 044       0.144000
     43 HAI         -8.7590    -0.7300     2.1800 ha         1 044       0.118000
     44 HAJ         -6.3920    -1.1110     1.6590 ha         1 044       0.128000
     45 HAM         -2.3780    -2.8800     0.1930 ha         1 044       0.132000
     46 HAO         -0.8390     1.8510     0.4780 ha         1 044       0.166000
     47 HAQ          0.0530    -2.3880     0.2750 ha         1 044       0.129000
     48 HNAR         1.7420    -0.8980     0.4240 hn         1 044       0.195000
     49 HBB          7.4640     0.1280     2.3160 ha         1 044       0.130000
     50 HBC          5.6550    -2.7860    -0.3220 ha         1 044       0.130000
     51 HBD          7.3830    -4.4430     0.3320 ha         1 044       0.118500
     52 HBE          9.1990    -1.5310     2.9500 ha         1 044       0.118500
     53 HBF          9.1620    -3.8210     1.9640 ha         1 044       0.117000
     54 HBH          3.8230     3.6630    -0.4290 hc         1 044       0.071700
     55 HBHA         3.6320     3.6760     1.3340 hc         1 044       0.071700
     56 HBHB         5.2370     3.8350     0.6230 hc         1 044       0.071700
     57 HBI          7.2650     2.5390     0.3040 h1         1 044       0.080700
     58 HBIA         7.6710     0.8820    -0.1300 h1         1 044       0.080700
     59 HBJ          5.8740     2.7310    -1.7820 h1         1 044       0.034700
     60 HBK          8.7640     1.8520    -2.3260 hc         1 044       0.048367
     61 HBKA         7.7460     2.8270    -3.4120 hc         1 044       0.048367
     62 HBKB         8.2430     3.4810    -1.8410 hc         1 044       0.048367
     63 HOBL         6.0770     1.0960    -3.3660 ho         1 044       0.452000
     64 HBN        -11.1350    -1.0440     1.9390 h1         1 044       0.040367
     65 HBNA       -10.7410     0.5940     2.5260 h1         1 044       0.040367
     66 HBNB       -12.2740     0.2940     1.6810 h1         1 044       0.040367
     67 OAZ          3.4990    -1.5580     0.5240 o          1 044      -0.566000
@<TRIPOS>BOND
     1     1     8 ar  
     2     1     9 ar  
     3     1    38 1   
     4     2     3 ar  
     5     2     7 ar  
     6     2    40 1   
     7     3     4 ar  
     8     3    41 1   
     9     4     5 ar  
    10     5     6 ar  
    11     5     8 ar  
    12     6     7 ar  
    13     6    10 ar  
    14     7    11 1   
    15     8    42 1   
    16     9    10 ar  
    17     9    43 1   
    18    10    44 1   
    19    11    12 1   
    20    12    13 ar  
    21    12    14 ar  
    22    13    17 ar  
    23    13    45 1   
    24    14    15 ar  
    25    14    32 1   
    26    15    16 ar  
    27    15    46 1   
    28    16    17 ar  
    29    16    18 1   
    30    17    47 1   
    31    18    21 1   
    32    18    48 1   
    33    19    20 1   
    34    19    25 1   
    35    19    67 2   
    36    20    21 1   
    37    20    24 2   
    38    21    22 2   
    39    23    24 1   
    40    23    25 1   
    41    23    34 1   
    42    24    33 1   
    43    25    26 1   
    44    26    27 ar  
    45    26    28 ar  
    46    27    30 ar  
    47    27    49 1   
    48    28    29 ar  
    49    28    50 1   
    50    29    31 ar  
    51    29    51 1   
    52    30    31 ar  
    53    30    52 1   
    54    31    53 1   
    55    33    54 1   
    56    33    55 1   
    57    33    56 1   
    58    34    35 1   
    59    34    57 1   
    60    34    58 1   
    61    35    36 1   
    62    35    37 1   
    63    35    59 1   
    64    36    60 1   
    65    36    61 1   
    66    36    62 1   
    67    37    63 1   
    68    38    39 1   
    69    39    64 1   
    70    39    65 1   
    71    39    66 1   
@<TRIPOS>SUBSTRUCTURE
     1 044         1 TEMP              0 ****  ****    0 ROOT
