@<TRIPOS>MOLECULE
046
   71    75     1     0     0
SMALL
bcc


@<TRIPOS>ATOM
      1 F1           7.2200    -1.7780     0.0660 f          1 046      -0.234967
      2 C2           6.1070    -1.5140    -0.6220 c3         1 046       0.728200
      3 F3           6.4470    -0.7580    -1.6730 f          1 046      -0.234967
      4 F4           5.7070    -2.6930    -1.1310 f          1 046      -0.234967
      5 C5           5.0230    -0.8800     0.2070 ca         1 046      -0.139300
      6 C6           5.2840     0.0540     1.2190 ca         1 046      -0.058300
      7 C7           4.1830     0.5770     1.8850 ca         1 046      -0.111000
      8 C9           2.8740     0.2300     1.5910 ca         1 046      -0.125000
      9 C11          2.6250    -0.6810     0.5690 ca         1 046       0.085600
     10 C12          3.7180    -1.2280    -0.1070 ca         1 046      -0.156000
     11 N14          1.3660    -1.1100     0.1510 ns         1 046      -0.485100
     12 C16          0.1420    -0.6670     0.5760 c          1 046       0.812100
     13 O17          0.0020     0.1550     1.4670 o          1 046      -0.608100
     14 N18         -0.9150    -1.2250    -0.0850 n          1 046      -0.395000
     15 C19         -0.7980    -2.1770    -1.1990 c5         1 046       0.096000
     16 C22         -2.2290    -2.3560    -1.7210 c5         1 046      -0.035100
     17 C25         -3.0680    -1.7040    -0.6650 ca         1 046      -0.135300
     18 C26         -2.2610    -1.0350     0.2540 ca         1 046       0.083600
     19 C27         -2.8310    -0.3440     1.3160 ca         1 046      -0.126000
     20 C29         -4.2180    -0.3400     1.4370 ca         1 046      -0.096000
     21 C31         -5.0070    -1.0070     0.5190 ca         1 046       0.084100
     22 C32         -4.4420    -1.6940    -0.5460 ca         1 046      -0.082000
     23 O34         -6.3760    -1.0630     0.7000 os         1 046      -0.364400
     24 C35         -7.1490    -0.0850     0.2150 ca         1 046       0.696600
     25 N36         -6.5970     0.9280    -0.4280 nb         1 046      -0.791000
     26 C37         -7.4380     1.8490    -0.8710 ca         1 046       0.709900
     27 N39         -8.7500     1.8670    -0.7450 nb         1 046      -0.735000
     28 C40         -9.2910     0.8370    -0.0970 ca         1 046       0.605200
     29 C41         -8.5140    -0.1960     0.4180 ca         1 046      -0.458600
     30 N43        -10.6540     0.7700     0.0830 ns         1 046      -0.567400
     31 C45        -11.6430     1.6430    -0.3180 c          1 046       0.678100
     32 O46        -11.4380     2.6670    -0.9270 o          1 046      -0.512100
     33 C47        -13.0190     1.1710     0.0730 c3         1 046      -0.187100
     34 C51          6.6580     0.5350     1.6150 c3         1 046       0.215100
     35 N54          7.3810     1.1110     0.5040 n3         1 046      -0.724600
     36 C55          8.7660     1.3690     0.8380 c6         1 046       0.168300
     37 C58          9.5160     1.8990    -0.3690 c6         1 046       0.163300
     38 N61          8.8880     3.1020    -0.8750 n3         1 046      -0.717600
     39 C62          7.5060     2.8350    -1.2150 c6         1 046       0.163300
     40 C65          6.7490     2.3080    -0.0110 c6         1 046       0.168300
     41 C68          9.6160     3.6570    -1.9920 c3         1 046       0.153100
     42 H1           4.3510     1.3020     2.6720 ha         1 046       0.138000
     43 H2           2.0720     0.6760     2.1550 ha         1 046       0.174000
     44 H3           3.5250    -1.9430    -0.8970 ha         1 046       0.141000
     45 H4           1.3940    -1.8140    -0.5690 hn         1 046       0.320500
     46 H5          -0.1400    -1.7860    -1.9750 h1         1 046       0.050200
     47 H6          -2.3670    -1.8630    -2.6850 hc         1 046       0.065700
     48 H7          -2.2360     0.1770     2.0460 ha         1 046       0.171000
     49 H8          -4.6770     0.1830     2.2660 ha         1 046       0.148000
     50 H9          -5.0670    -2.2160    -1.2610 ha         1 046       0.147000
     51 H10         -6.9950     2.6860    -1.4000 h5         1 046       0.055100
     52 H11         -8.9440    -1.0380     0.9430 ha         1 046       0.161000
     53 H12        -10.9740    -0.0490     0.5800 hn         1 046       0.320500
     54 H13        -13.0640     0.8960     1.1270 hc         1 046       0.066033
     55 H14        -13.7510     1.9500    -0.1220 hc         1 046       0.066033
     56 H15        -13.2900     0.2860    -0.5060 hc         1 046       0.066033
     57 H16          6.5380     1.2560     2.4410 h1         1 046       0.045700
     58 H17          7.2460    -0.2900     2.0210 h1         1 046       0.045700
     59 H19          8.8590     2.0930     1.6670 h1         1 046       0.038700
     60 H20          9.2340     0.4380     1.1670 h1         1 046       0.038700
     61 H21         10.5450     2.1260    -0.0790 h1         1 046       0.039950
     62 H22          9.5610     1.1080    -1.1390 h1         1 046       0.039950
     63 H24          7.0340     3.7610    -1.5540 h1         1 046       0.039950
     64 H25          7.4220     2.1040    -2.0380 h1         1 046       0.039950
     65 H26          5.7260     2.0780    -0.3160 h1         1 046       0.038700
     66 H27          6.6870     3.0990     0.7580 h1         1 046       0.038700
     67 H28          9.6710     2.9770    -2.8570 h1         1 046       0.030033
     68 H29          9.1390     4.5800    -2.3250 h1         1 046       0.030033
     69 H30         10.6370     3.8970    -1.6930 h1         1 046       0.030033
     70 H31         -0.3900    -3.1250    -0.8410 h1         1 046       0.050200
     71 H32         -2.4750    -3.4080    -1.8590 hc         1 046       0.065700
@<TRIPOS>BOND
     1     1     2 1   
     2     2     3 1   
     3     2     4 1   
     4     2     5 1   
     5     5     6 ar  
     6     5    10 ar  
     7     6     7 ar  
     8     6    34 1   
     9     7     8 ar  
    10     7    42 1   
    11     8     9 ar  
    12     8    43 1   
    13     9    10 ar  
    14     9    11 1   
    15    10    44 1   
    16    11    12 1   
    17    11    45 1   
    18    12    13 2   
    19    12    14 1   
    20    14    15 1   
    21    14    18 1   
    22    15    16 1   
    23    15    46 1   
    24    15    70 1   
    25    16    17 1   
    26    16    47 1   
    27    16    71 1   
    28    17    18 ar  
    29    17    22 ar  
    30    18    19 ar  
    31    19    20 ar  
    32    19    48 1   
    33    20    21 ar  
    34    20    49 1   
    35    21    22 ar  
    36    21    23 1   
    37    22    50 1   
    38    23    24 1   
    39    24    25 ar  
    40    24    29 ar  
    41    25    26 ar  
    42    26    27 ar  
    43    26    51 1   
    44    27    28 ar  
    45    28    29 ar  
    46    28    30 1   
    47    29    52 1   
    48    30    31 1   
    49    30    53 1   
    50    31    32 2   
    51    31    33 1   
    52    33    54 1   
    53    33    55 1   
    54    33    56 1   
    55    34    35 1   
    56    34    57 1   
    57    34    58 1   
    58    35    36 1   
    59    35    40 1   
    60    36    37 1   
    61    36    59 1   
    62    36    60 1   
    63    37    38 1   
    64    37    61 1   
    65    37    62 1   
    66    38    39 1   
    67    38    41 1   
    68    39    40 1   
    69    39    63 1   
    70    39    64 1   
    71    40    65 1   
    72    40    66 1   
    73    41    67 1   
    74    41    68 1   
    75    41    69 1   
@<TRIPOS>SUBSTRUCTURE
     1 046         1 TEMP              0 ****  ****    0 ROOT
