@<TRIPOS>MOLECULE
046
   71    75     1     0     0
SMALL
No Charge or Current Charge


@<TRIPOS>ATOM
      1 F1           7.0340    -2.7010     0.5350 f          1 046      -0.113667
      2 C2           6.2800    -2.1040    -0.4170 c3         1 046       0.364300
      3 F3           7.1110    -1.3520    -1.1720 f          1 046      -0.113667
      4 F4           5.8430    -3.0990    -1.2240 f          1 046      -0.113667
      5 C5           5.1290    -1.2740     0.1970 ca         1 046      -0.139300
      6 C6           5.3750    -0.1610     1.0500 ca         1 046      -0.058300
      7 C7           4.2830     0.5450     1.5950 ca         1 046      -0.093000
      8 C9           2.9610     0.1790     1.3050 ca         1 046      -0.107000
      9 C11          2.7010    -0.9140     0.4570 ca         1 046      -0.007000
     10 C12          3.7850    -1.6290    -0.0820 ca         1 046      -0.138000
     11 N14          1.3920    -1.3560     0.1140 ns         1 046      -0.159000
     12 C16          0.1230    -0.8590     0.4000 c          1 046       0.678100
     13 O17         -0.0580     0.1590     1.0560 o          1 046      -0.608100
     14 N18         -0.9560    -1.6190    -0.1300 n          1 046      -0.235400
     15 C19         -0.7010    -2.8540    -0.9310 c5         1 046       0.096000
     16 C22         -2.1510    -3.3670    -1.3040 c5         1 046      -0.035100
     17 C25         -3.0500    -2.3290    -0.6610 ca         1 046      -0.135300
     18 C26         -2.3430    -1.3460     0.0020 ca         1 046      -0.009000
     19 C27         -3.0040    -0.2960     0.6690 ca         1 046      -0.108000
     20 C29         -4.4130    -0.2630     0.6450 ca         1 046      -0.078000
     21 C31         -5.1370    -1.2620    -0.0450 ca         1 046       0.084100
     22 C32         -4.4540    -2.3090    -0.6920 ca         1 046      -0.064000
     23 O34         -6.5140    -1.2520    -0.0620 os         1 046      -0.364400
     24 C35         -7.2530    -0.1270    -0.3510 ca         1 046       0.368300
     25 N36         -6.7410     0.8650    -1.1100 nb         1 046      -0.265000
     26 C37         -7.5470     1.9180    -1.3570 ca         1 046       0.183900
     27 N39         -8.8150     2.0760    -0.9270 nb         1 046      -0.209000
     28 C40         -9.3210     1.0770    -0.1790 ca         1 046       0.276900
     29 C41         -8.5660    -0.0600     0.1340 ca         1 046      -0.310000
     30 N43        -10.6480     1.2030     0.2850 ns         1 046      -0.333900
     31 C45        -11.5860     2.2080     0.1220 c          1 046       0.611100
     32 O46        -11.3920     3.2400    -0.5070 o          1 046      -0.512100
     33 C47        -12.9190     1.9270     0.8060 c3         1 046      -0.187100
     34 C51          6.7860     0.3170     1.4250 c3         1 046       0.215100
     35 N54          7.4230     1.1900     0.4090 n3         1 046      -0.724600
     36 C55          8.8440     1.5120     0.7410 c6         1 046       0.168300
     37 C58          9.5270     2.3930    -0.3550 c6         1 046       0.163300
     38 N61          8.7700     3.6540    -0.6230 n3         1 046      -0.717600
     39 C62          7.3480     3.3330    -0.9580 c6         1 046       0.163300
     40 C65          6.6630     2.4500     0.1340 c6         1 046       0.168300
     41 C68          9.4190     4.5070    -1.6400 c3         1 046       0.153100
     42 H1           4.4620     1.3940     2.2510 ha         1 046       0.120000
     43 H2           2.1600     0.7560     1.7540 ha         1 046       0.156000
     44 H3           3.5680    -2.4750    -0.7290 ha         1 046       0.123000
     45 H4           1.3870    -2.1960    -0.4470 hn         1 046       0.154000
     46 H5          -0.1180    -2.6290    -1.8340 h1         1 046       0.050200
     47 H6          -2.2920    -3.4140    -2.3900 hc         1 046       0.065700
     48 H7          -2.4620     0.4800     1.2000 ha         1 046       0.153000
     49 H8          -4.9400     0.5340     1.1640 ha         1 046       0.130000
     50 H9          -5.0080    -3.0860    -1.2120 ha         1 046       0.129000
     51 H10         -7.1330     2.7200    -1.9650 h5         1 046       0.055100
     52 H11         -8.9780    -0.8650     0.7340 ha         1 046       0.143000
     53 H12        -10.9670     0.4160     0.8340 hn         1 046       0.154000
     54 H13        -12.7380     1.7250     1.8680 hc         1 046       0.066033
     55 H14        -13.6450     2.7360     0.6640 hc         1 046       0.066033
     56 H15        -13.3060     0.9660     0.4490 hc         1 046       0.066033
     57 H16          6.7310     0.8530     2.3830 h1         1 046       0.045700
     58 H17          7.4210    -0.5570     1.6150 h1         1 046       0.045700
     59 H19          8.8960     2.0450     1.7010 h1         1 046       0.038700
     60 H20          9.4260     0.5850     0.8560 h1         1 046       0.038700
     61 H21         10.5520     2.6260    -0.0290 h1         1 046       0.039950
     62 H22          9.6110     1.7990    -1.2770 h1         1 046       0.039950
     63 H24          6.7670     4.2590    -1.0750 h1         1 046       0.039950
     64 H25          7.2990     2.7980    -1.9180 h1         1 046       0.039950
     65 H26          5.6430     2.2180    -0.2060 h1         1 046       0.038700
     66 H27          6.5680     3.0420     1.0560 h1         1 046       0.038700
     67 H28          9.4660     3.9930    -2.6100 h1         1 046       0.030033
     68 H29          8.8620     5.4440    -1.7730 h1         1 046       0.030033
     69 H30         10.4430     4.7620    -1.3360 h1         1 046       0.030033
     70 H31         -0.1580    -3.6060    -0.3420 h1         1 046       0.050200
     71 H32         -2.3350    -4.3710    -0.9070 hc         1 046       0.065700
@<TRIPOS>BOND
     1     1     2 1   
     2     2     3 1   
     3     2     4 1   
     4     2     5 1   
     5     5     6 ar  
     6     5    10 ar  
     7     6     7 ar  
     8     6    34 1   
     9     7     8 ar  
    10     7    42 1   
    11     8     9 ar  
    12     8    43 1   
    13     9    10 ar  
    14     9    11 1   
    15    10    44 1   
    16    11    12 1   
    17    11    45 1   
    18    12    13 2   
    19    12    14 1   
    20    14    15 1   
    21    14    18 1   
    22    15    16 1   
    23    15    46 1   
    24    15    70 1   
    25    16    17 1   
    26    16    47 1   
    27    16    71 1   
    28    17    18 ar  
    29    17    22 ar  
    30    18    19 ar  
    31    19    20 ar  
    32    19    48 1   
    33    20    21 ar  
    34    20    49 1   
    35    21    22 ar  
    36    21    23 1   
    37    22    50 1   
    38    23    24 1   
    39    24    25 ar  
    40    24    29 ar  
    41    25    26 ar  
    42    26    27 ar  
    43    26    51 1   
    44    27    28 ar  
    45    28    29 ar  
    46    28    30 1   
    47    29    52 1   
    48    30    31 1   
    49    30    53 1   
    50    31    32 2   
    51    31    33 1   
    52    33    54 1   
    53    33    55 1   
    54    33    56 1   
    55    34    35 1   
    56    34    57 1   
    57    34    58 1   
    58    35    36 1   
    59    35    40 1   
    60    36    37 1   
    61    36    59 1   
    62    36    60 1   
    63    37    38 1   
    64    37    61 1   
    65    37    62 1   
    66    38    39 1   
    67    38    41 1   
    68    39    40 1   
    69    39    63 1   
    70    39    64 1   
    71    40    65 1   
    72    40    66 1   
    73    41    67 1   
    74    41    68 1   
    75    41    69 1   
@<TRIPOS>SUBSTRUCTURE
     1 046         1 TEMP              0 ****  ****    0 ROOT
