@<TRIPOS>MOLECULE
047
   53    56     1     0     0
SMALL
No Charge or Current Charge


@<TRIPOS>ATOM
      1 N1           8.3450    -5.9300    -1.0830 na         1 047       0.001500
      2 C2           9.0300    -4.7810    -1.4300 ca         1 047      -0.039200
      3 C3           8.1760    -3.8960    -2.0300 ca         1 047      -0.080800
      4 C4           6.8570    -4.4770    -2.0260 cc         1 047      -0.142400
      5 C5           6.9840    -5.7090    -1.3830 cd         1 047      -0.149100
      6 C7           5.5910    -3.8310    -2.5200 c3         1 047       0.238000
      7 N10          5.5140    -3.9470    -3.9830 n7         1 047      -0.862400
      8 C12          4.2920    -3.3940    -4.5940 c3         1 047       0.161800
      9 C15          4.2780    -3.5380    -6.1450 c6         1 047      -0.060700
     10 C17          5.4250    -2.7340    -6.8270 c6         1 047      -0.069400
     11 C20          5.3840    -2.8770    -8.3690 c6         1 047      -0.072900
     12 C23          4.0080    -2.4530    -8.9370 c6         1 047      -0.074400
     13 C26          2.8620    -3.2510    -8.2690 c6         1 047      -0.072900
     14 C29          2.9020    -3.1060    -6.7270 c6         1 047      -0.069400
     15 C32          8.6160    -2.6520    -2.5040 ca         1 047      -0.049000
     16 C34          9.9820    -2.3300    -2.3460 ca         1 047      -0.145000
     17 C36         10.8660    -3.2440    -1.7270 ca         1 047      -0.095000
     18 C38         10.3920    -4.4890    -1.2610 ca         1 047      -0.127000
     19 C40          8.5320    -6.6600     0.0900 ca         1 047       0.008800
     20 C41          8.6340    -6.0070     1.3350 ca         1 047      -0.116000
     21 C43          8.8220    -6.7520     2.5120 ca         1 047      -0.098000
     22 C45          8.9080    -8.1560     2.4570 ca         1 047      -0.078300
     23 C46          8.8070    -8.8080     1.2130 ca         1 047      -0.098000
     24 C48          8.6190    -8.0630     0.0360 ca         1 047      -0.116000
     25 C50          9.1150    -8.9620     3.7300 c3         1 047      -0.046800
     26 H5           6.2130    -6.4210    -1.1050 h4         1 047       0.213000
     27 H71          4.7300    -4.3250    -2.0490 h1         1 047       0.030700
     28 H72          5.5800    -2.7760    -2.2140 h1         1 047       0.030700
     29 HN10         5.5690    -4.9440    -4.2150 hn         1 047       0.412000
     30 H121         3.4120    -3.9130    -4.1920 h1         1 047       0.026200
     31 H122         4.1900    -2.3290    -4.3420 h1         1 047       0.026200
     32 H15          4.4200    -4.6060    -6.3610 hc         1 047       0.042700
     33 H171         6.4020    -3.0780    -6.4600 hc         1 047       0.041950
     34 H172         5.3490    -1.6720    -6.5540 hc         1 047       0.041950
     35 H201         5.5950    -3.9190    -8.6490 hc         1 047       0.036950
     36 H202         6.1770    -2.2660    -8.8210 hc         1 047       0.036950
     37 H231         3.8550    -1.3780    -8.7730 hc         1 047       0.037200
     38 H232         3.9880    -2.6100   -10.0240 hc         1 047       0.037200
     39 H261         1.8930    -2.9010    -8.6510 hc         1 047       0.036950
     40 H262         2.9410    -4.3120    -8.5430 hc         1 047       0.036950
     41 H291         2.6910    -2.0630    -6.4520 hc         1 047       0.041950
     42 H292         2.1000    -3.7120    -6.2830 hc         1 047       0.041950
     43 H32          7.9260    -1.9570    -2.9770 ha         1 047       0.129000
     44 H34         10.3550    -1.3730    -2.7030 ha         1 047       0.110000
     45 H36         11.9170    -2.9880    -1.6110 ha         1 047       0.108000
     46 H38         11.0630    -5.2030    -0.7890 ha         1 047       0.117000
     47 H41          8.5660    -4.9230     1.3890 ha         1 047       0.127000
     48 H43          8.9020    -6.2370     3.4670 ha         1 047       0.116000
     49 H46          8.8760    -9.8920     1.1570 ha         1 047       0.116000
     50 H48          8.5430    -8.5750    -0.9210 ha         1 047       0.127000
     51 H501        10.1830    -9.1000     3.9360 hc         1 047       0.044367
     52 H502         8.6690    -8.4620     4.5980 hc         1 047       0.044367
     53 H503         8.6580    -9.9560     3.6540 hc         1 047       0.044367
@<TRIPOS>BOND
     1     1     2 1   
     2     1     5 1   
     3     1    19 1   
     4     2     3 ar  
     5     2    18 ar  
     6     3     4 1   
     7     3    15 ar  
     8     4     5 2   
     9     4     6 1   
    10     5    26 1   
    11     6     7 1   
    12     6    27 1   
    13     6    28 1   
    14     7     8 1   
    15     7    29 1   
    16     8     9 1   
    17     8    30 1   
    18     8    31 1   
    19     9    10 1   
    20     9    14 1   
    21     9    32 1   
    22    10    11 1   
    23    10    33 1   
    24    10    34 1   
    25    11    12 1   
    26    11    35 1   
    27    11    36 1   
    28    12    13 1   
    29    12    37 1   
    30    12    38 1   
    31    13    14 1   
    32    13    39 1   
    33    13    40 1   
    34    14    41 1   
    35    14    42 1   
    36    15    16 ar  
    37    15    43 1   
    38    16    17 ar  
    39    16    44 1   
    40    17    18 ar  
    41    17    45 1   
    42    18    46 1   
    43    19    20 ar  
    44    19    24 ar  
    45    20    21 ar  
    46    20    47 1   
    47    21    22 ar  
    48    21    48 1   
    49    22    23 ar  
    50    22    25 1   
    51    23    24 ar  
    52    23    49 1   
    53    24    50 1   
    54    25    51 1   
    55    25    52 1   
    56    25    53 1   
@<TRIPOS>SUBSTRUCTURE
     1 047         1 TEMP              0 ****  ****    0 ROOT
