@<TRIPOS>MOLECULE
047
   53    56     1     0     0
SMALL
bcc


@<TRIPOS>ATOM
      1 N1           7.9500    -5.5320    -0.5390 na         1 047       0.001500
      2 C2           8.7750    -4.7660    -1.3330 ca         1 047      -0.039200
      3 C3           7.9530    -4.0110    -2.1960 ca         1 047      -0.080800
      4 C4           6.5930    -4.3390    -1.8820 cc         1 047      -0.142400
      5 C5           6.6440    -5.2580    -0.8800 cd         1 047      -0.099100
      6 C7           5.3680    -3.7670    -2.5120 c3         1 047       0.238000
      7 N10          5.3990    -3.9040    -3.9550 n7         1 047      -0.807200
      8 C12          4.2360    -3.3280    -4.5990 c3         1 047       0.161800
      9 C15          4.2920    -3.4580    -6.1160 c6         1 047      -0.060700
     10 C17          5.5090    -2.7580    -6.7180 c6         1 047      -0.069400
     11 C20          5.5370    -2.8800    -8.2390 c6         1 047      -0.072900
     12 C23          4.2490    -2.3530    -8.8630 c6         1 047      -0.074400
     13 C26          3.0260    -3.0420    -8.2680 c6         1 047      -0.072900
     14 C29          3.0060    -2.9240    -6.7470 c6         1 047      -0.069400
     15 C32          8.5420    -3.1350    -3.1140 ca         1 047      -0.067000
     16 C34          9.9180    -3.0150    -3.1330 ca         1 047      -0.163000
     17 C36         10.7180    -3.7570    -2.2490 ca         1 047      -0.113000
     18 C38         10.1640    -4.6390    -1.3410 ca         1 047      -0.145000
     19 C40          8.3440    -6.4170     0.4840 ca         1 047       0.008800
     20 C41          7.7310    -6.3480     1.7310 ca         1 047      -0.134000
     21 C43          8.1010    -7.2290     2.7340 ca         1 047      -0.116000
     22 C45          9.0990    -8.1800     2.5310 ca         1 047      -0.078300
     23 C46          9.7080    -8.2280     1.2800 ca         1 047      -0.116000
     24 C48          9.3310    -7.3690     0.2580 ca         1 047      -0.134000
     25 C50          9.4870    -9.1330     3.6230 c3         1 047      -0.046800
     26 H5           5.8350    -5.7670    -0.3780 h4         1 047       0.163000
     27 H71          4.4770    -4.2240    -2.0520 h1         1 047       0.030700
     28 H72          5.3060    -2.6970    -2.2830 h1         1 047       0.030700
     29 HN10         5.4580    -4.8880    -4.1910 hn         1 047       0.356800
     30 H121         3.2930    -3.7730    -4.2350 h1         1 047       0.026200
     31 H122         4.1910    -2.2650    -4.3320 h1         1 047       0.026200
     32 H15          4.3600    -4.5280    -6.3630 hc         1 047       0.042700
     33 H171         6.4250    -3.1620    -6.2830 hc         1 047       0.041950
     34 H172         5.4790    -1.6970    -6.4400 hc         1 047       0.041950
     35 H201         5.6700    -3.9320    -8.5140 hc         1 047       0.036950
     36 H202         6.4000    -2.3450    -8.6430 hc         1 047       0.036950
     37 H231         4.1780    -1.2740    -8.6850 hc         1 047       0.037200
     38 H232         4.2690    -2.4860    -9.9480 hc         1 047       0.037200
     39 H261         2.1100    -2.6200    -8.6890 hc         1 047       0.036950
     40 H262         3.0360    -4.1020    -8.5460 hc         1 047       0.036950
     41 H291         2.8820    -1.8700    -6.4690 hc         1 047       0.041950
     42 H292         2.1410    -3.4550    -6.3390 hc         1 047       0.041950
     43 H32          7.9210    -2.5740    -3.7990 ha         1 047       0.147000
     44 H34         10.3910    -2.3420    -3.8370 ha         1 047       0.128000
     45 H36         11.7940    -3.6370    -2.2790 ha         1 047       0.126000
     46 H38         10.7930    -5.2010    -0.6640 ha         1 047       0.135000
     47 H41          6.9720    -5.5990     1.9200 ha         1 047       0.145000
     48 H43          7.6130    -7.1620     3.7000 ha         1 047       0.134000
     49 H46         10.4850    -8.9590     1.0920 ha         1 047       0.134000
     50 H48          9.7990    -7.4500    -0.7140 ha         1 047       0.145000
     51 H501        10.4530    -9.5950     3.4260 hc         1 047       0.044367
     52 H502         9.5420    -8.6320     4.5890 hc         1 047       0.044367
     53 H503         8.7520    -9.9360     3.7190 hc         1 047       0.044367
@<TRIPOS>BOND
     1     1     2 1   
     2     1     5 1   
     3     1    19 1   
     4     2     3 ar  
     5     2    18 ar  
     6     3     4 1   
     7     3    15 ar  
     8     4     5 2   
     9     4     6 1   
    10     5    26 1   
    11     6     7 1   
    12     6    27 1   
    13     6    28 1   
    14     7     8 1   
    15     7    29 1   
    16     8     9 1   
    17     8    30 1   
    18     8    31 1   
    19     9    10 1   
    20     9    14 1   
    21     9    32 1   
    22    10    11 1   
    23    10    33 1   
    24    10    34 1   
    25    11    12 1   
    26    11    35 1   
    27    11    36 1   
    28    12    13 1   
    29    12    37 1   
    30    12    38 1   
    31    13    14 1   
    32    13    39 1   
    33    13    40 1   
    34    14    41 1   
    35    14    42 1   
    36    15    16 ar  
    37    15    43 1   
    38    16    17 ar  
    39    16    44 1   
    40    17    18 ar  
    41    17    45 1   
    42    18    46 1   
    43    19    20 ar  
    44    19    24 ar  
    45    20    21 ar  
    46    20    47 1   
    47    21    22 ar  
    48    21    48 1   
    49    22    23 ar  
    50    22    25 1   
    51    23    24 ar  
    52    23    49 1   
    53    24    50 1   
    54    25    51 1   
    55    25    52 1   
    56    25    53 1   
@<TRIPOS>SUBSTRUCTURE
     1 047         1 TEMP              0 ****  ****    0 ROOT
