@<TRIPOS>MOLECULE
048
   50    53     1     0     0
SMALL
abcg2


@<TRIPOS>ATOM
      1 OAA         -4.6810    -2.1430     1.9380 o          1 048      -0.527100
      2 OAB          2.0820    -1.1340     0.9560 o          1 048      -0.578100
      3 CAD          6.2150    -3.8730     0.3300 ca         1 048      -0.086000
      4 CAE          4.8740    -4.2370     0.3670 ca         1 048      -0.118500
      5 CAF          6.5670    -2.5300     0.3140 ca         1 048      -0.118500
      6 CAG          3.8900    -3.2620     0.3890 ca         1 048      -0.070500
      7 CAH          5.5820    -1.5530     0.3190 ca         1 048      -0.070500
      8 CAI          2.3060     3.7720     0.0200 ca         1 048      -0.102000
      9 CAJ          0.9400     3.6520    -0.1730 ca         1 048      -0.154000
     10 CAK         -1.5390     0.2820     0.5860 ca         1 048      -0.180000
     11 CAL         -2.4990    -0.6550     0.9140 ca         1 048      -0.027000
     12 CAM         -3.1880     1.3940    -0.7600 ca         1 048      -0.198000
     13 CAN          1.1910     1.2800    -0.4840 ca         1 048      -0.130000
     14 CAO         -6.6720    -1.6040    -0.8530 c3         1 048      -0.062400
     15 CAP         -6.2350    -0.4240    -1.7040 c3         1 048      -0.069400
     16 CAQ         -5.5260    -2.4210    -0.2600 c3         1 048      -0.173400
     17 CAR         -5.5590     0.6990    -0.9250 c3         1 048      -0.037100
     18 NAT         -0.9990     2.3220    -0.6570 nu         1 048      -0.989000
     19 CAU         -4.6980    -1.7300     0.7950 c          1 048       0.592700
     20 CAV          3.1360    -0.9050     0.3910 c          1 048       0.623700
     21 CAW          3.0920     2.6400     0.0110 ca         1 048       0.107000
     22 CAX         -1.8720     1.3290    -0.2790 ca         1 048       0.343000
     23 CAY          0.3680     2.4030    -0.4190 ca         1 048       0.315000
     24 CAZ          4.2360    -1.9130     0.3490 ca         1 048      -0.154600
     25 CBA         -4.1510     0.4500    -0.4420 ca         1 048       0.005700
     26 CBB          2.5530     1.3830    -0.2330 ca         1 048      -0.040000
     27 CBC         -3.7940    -0.6190     0.3950 ca         1 048      -0.208600
     28 HAD          6.9830    -4.6340     0.3210 ha         1 048       0.116000
     29 HAE          4.5970    -5.2820     0.3830 ha         1 048       0.119000
     30 HAF          7.6090    -2.2420     0.3030 ha         1 048       0.119000
     31 HAG          2.8470    -3.5500     0.4250 ha         1 048       0.124500
     32 HAH          5.8830    -0.5120     0.3350 ha         1 048       0.124500
     33 HAI          2.7520     4.7390     0.2100 ha         1 048       0.134000
     34 HAJ          0.3160     4.5350    -0.1330 ha         1 048       0.120000
     35 HAK         -0.5520     0.1930     1.0180 ha         1 048       0.143000
     36 HAL         -2.2210    -1.4590     1.5850 ha         1 048       0.130000
     37 HAM         -3.4650     2.2270    -1.3970 ha         1 048       0.107000
     38 HAN          0.7790     0.3190    -0.7530 ha         1 048       0.147000
     39 HAO         -7.3310    -1.2560    -0.0510 hc         1 048       0.044700
     40 HAOA        -7.2710    -2.2820    -1.4640 hc         1 048       0.044700
     41 HAP         -5.5820    -0.7660    -2.5120 hc         1 048       0.043700
     42 HAPA        -7.1210    -0.0040    -2.1860 hc         1 048       0.043700
     43 HAQ         -5.9260    -3.3330     0.1860 hc         1 048       0.063700
     44 HAQA        -4.8540    -2.7220    -1.0710 hc         1 048       0.063700
     45 HAR         -5.5450     1.5940    -1.5490 hc         1 048       0.048700
     46 HARA        -6.1830     0.9530    -0.0610 hc         1 048       0.048700
     47 HNAS         4.2850     0.3660    -0.7190 hn         1 048       0.167000
     48 HNAT        -1.4240     3.1550    -1.0340 hn         1 048       0.493000
     49 FAC          4.4130     2.7430     0.2360 f          1 048      -0.182000
     50 NAS          3.3980     0.2650    -0.2510 ns         1 048      -0.156000
@<TRIPOS>BOND
     1     1    19 2   
     2     2    20 2   
     3     3     4 ar  
     4     3     5 ar  
     5     3    28 1   
     6     4     6 ar  
     7     4    29 1   
     8     5     7 ar  
     9     5    30 1   
    10     6    24 ar  
    11     6    31 1   
    12     7    24 ar  
    13     7    32 1   
    14     8     9 ar  
    15     8    21 ar  
    16     8    33 1   
    17     9    23 ar  
    18     9    34 1   
    19    10    11 ar  
    20    10    22 ar  
    21    10    35 1   
    22    11    27 ar  
    23    11    36 1   
    24    12    22 ar  
    25    12    25 ar  
    26    12    37 1   
    27    13    23 ar  
    28    13    26 ar  
    29    13    38 1   
    30    14    15 1   
    31    14    16 1   
    32    14    39 1   
    33    14    40 1   
    34    15    17 1   
    35    15    41 1   
    36    15    42 1   
    37    16    19 1   
    38    16    43 1   
    39    16    44 1   
    40    17    25 1   
    41    17    45 1   
    42    17    46 1   
    43    18    22 1   
    44    18    23 1   
    45    18    48 1   
    46    19    27 1   
    47    20    24 1   
    48    20    50 1   
    49    21    26 ar  
    50    21    49 1   
    51    25    27 ar  
    52    26    50 1   
    53    47    50 1   
@<TRIPOS>SUBSTRUCTURE
     1 048         1 TEMP              0 ****  ****    0 ROOT
