@<TRIPOS>MOLECULE
048
   50    53     1     0     0
SMALL
No Charge or Current Charge


@<TRIPOS>ATOM
      1 OAA         -5.5820    -1.4490     2.0780 o          1 048      -0.527100
      2 OAB          1.9390    -1.5910     0.3760 o          1 048      -0.578100
      3 CAD          6.4640    -3.8950     0.1410 ca         1 048      -0.086000
      4 CAE          5.1610    -4.3760     0.3380 ca         1 048      -0.118500
      5 CAF          6.6790    -2.5200    -0.0390 ca         1 048      -0.118500
      6 CAG          4.0740    -3.4850     0.3550 ca         1 048      -0.070500
      7 CAH          5.5960    -1.6240    -0.0240 ca         1 048      -0.070500
      8 CAI          2.3780     3.7850    -0.0940 ca         1 048      -0.102000
      9 CAJ          0.9790     3.7050    -0.2030 ca         1 048      -0.154000
     10 CAK         -1.8050     0.5270     1.0000 ca         1 048      -0.180000
     11 CAL         -2.8050    -0.4030     1.3230 ca         1 048      -0.027000
     12 CAM         -3.2460     1.4900    -0.6930 ca         1 048      -0.198000
     13 CAN          1.1140     1.2790    -0.1670 ca         1 048      -0.130000
     14 CAO         -6.5390    -1.7750    -1.0770 c3         1 048      -0.062400
     15 CAP         -6.0170    -0.5840    -1.9160 c3         1 048      -0.069400
     16 CAQ         -5.4820    -2.3920    -0.1370 c3         1 048      -0.173400
     17 CAR         -5.6120     0.6650    -1.0980 c3         1 048      -0.037100
     18 NAT         -1.0490     2.4120    -0.3560 nu         1 048      -0.989000
     19 CAU         -5.0660    -1.4190     0.9670 c          1 048       0.592700
     20 CAV          3.0740    -1.1620     0.1980 c          1 048       0.623700
     21 CAW          3.1410     2.6100    -0.0150 ca         1 048       0.107000
     22 CAX         -2.0160     1.4640    -0.0220 ca         1 048       0.343000
     23 CAY          0.3410     2.4550    -0.2270 ca         1 048       0.315000
     24 CAZ          4.2720    -2.0960     0.1750 ca         1 048      -0.154600
     25 CBA         -4.2610     0.5610    -0.3850 ca         1 048       0.005700
     26 CBB          2.5220     1.3430    -0.0460 ca         1 048      -0.040000
     27 CBC         -4.0270    -0.3990     0.6240 ca         1 048      -0.208600
     28 HAD          7.3050    -4.5850     0.1290 ha         1 048       0.116000
     29 HAE          4.9920    -5.4410     0.4780 ha         1 048       0.119000
     30 HAF          7.6890    -2.1460    -0.1920 ha         1 048       0.119000
     31 HAG          3.0730    -3.8830     0.5090 ha         1 048       0.124500
     32 HAH          5.8070    -0.5670    -0.1680 ha         1 048       0.124500
     33 HAI          2.8710     4.7540    -0.0720 ha         1 048       0.134000
     34 HAJ          0.3920     4.6180    -0.2620 ha         1 048       0.120000
     35 HAK         -0.8750     0.5250     1.5590 ha         1 048       0.143000
     36 HAL         -2.6280    -1.1310     2.1140 ha         1 048       0.130000
     37 HAM         -3.4160     2.2380    -1.4620 ha         1 048       0.107000
     38 HAN          0.6080     0.3260    -0.2450 ha         1 048       0.147000
     39 HAO         -7.4130    -1.4590    -0.4920 hc         1 048       0.044700
     40 HAOA        -6.8900    -2.5540    -1.7640 hc         1 048       0.044700
     41 HAP         -5.1700    -0.9060    -2.5340 hc         1 048       0.043700
     42 HAPA        -6.8120    -0.2920    -2.6130 hc         1 048       0.043700
     43 HAQ         -5.8850    -3.3080     0.3110 hc         1 048       0.063700
     44 HAQA        -4.6060    -2.6150    -0.7560 hc         1 048       0.063700
     45 HAR         -5.6000     1.5210    -1.7850 hc         1 048       0.048700
     46 HARA        -6.4010     0.8900    -0.3700 hc         1 048       0.048700
     47 HNAS         4.3380     0.3960    -0.0770 hn         1 048       0.167000
     48 HNAT        -1.4420     3.2490    -0.7880 hn         1 048       0.493000
     49 FAC          4.4870     2.7040     0.0880 f          1 048      -0.182000
     50 NAS          3.3540     0.1880     0.0210 ns         1 048      -0.156000
@<TRIPOS>BOND
     1     1    19 2   
     2     2    20 2   
     3     3     4 ar  
     4     3     5 ar  
     5     3    28 1   
     6     4     6 ar  
     7     4    29 1   
     8     5     7 ar  
     9     5    30 1   
    10     6    24 ar  
    11     6    31 1   
    12     7    24 ar  
    13     7    32 1   
    14     8     9 ar  
    15     8    21 ar  
    16     8    33 1   
    17     9    23 ar  
    18     9    34 1   
    19    10    11 ar  
    20    10    22 ar  
    21    10    35 1   
    22    11    27 ar  
    23    11    36 1   
    24    12    22 ar  
    25    12    25 ar  
    26    12    37 1   
    27    13    23 ar  
    28    13    26 ar  
    29    13    38 1   
    30    14    15 1   
    31    14    16 1   
    32    14    39 1   
    33    14    40 1   
    34    15    17 1   
    35    15    41 1   
    36    15    42 1   
    37    16    19 1   
    38    16    43 1   
    39    16    44 1   
    40    17    25 1   
    41    17    45 1   
    42    17    46 1   
    43    18    22 1   
    44    18    23 1   
    45    18    48 1   
    46    19    27 1   
    47    20    24 1   
    48    20    50 1   
    49    21    26 ar  
    50    21    49 1   
    51    25    27 ar  
    52    26    50 1   
    53    47    50 1   
@<TRIPOS>SUBSTRUCTURE
     1 048         1 TEMP              0 ****  ****    0 ROOT
