@<TRIPOS>MOLECULE
049
   37    38     1     0     0
SMALL
bcc


@<TRIPOS>ATOM
      1 C4           3.8630    -0.0100     1.3180 ca         1 049      -0.125000
      2 C5           2.4980    -0.2680     1.3550 ca         1 049      -0.124000
      3 C6           1.8390    -0.7950     0.2490 ca         1 049      -0.081300
      4 C7          -0.4170     0.0150    -0.5060 c3         1 049       0.088700
      5 C8           0.3570    -1.0480     0.2780 c3         1 049      -0.044100
      6 C10         -2.7240    -0.6830     0.4810 cx         1 049       0.037800
      7 C9          -1.9000    -0.3420    -0.7580 c3         1 049       0.150100
      8 C12         -3.8910    -1.5490     0.3200 cx         1 049       0.064400
      9 O13         -2.6740    -2.0520     0.8650 op         1 049      -0.407600
     10 C11         -2.7230     0.3050     1.6190 c3         1 049      -0.072100
     11 N22         -0.2450     1.3110     0.1130 ns         1 049      -0.571900
     12 C23         -0.2460     2.4660    -0.5770 c          1 049       0.665100
     13 C18         -0.0150     3.7110     0.2410 c3         1 049      -0.179100
     14 O49         -0.4230     2.5130    -1.7870 o          1 049      -0.603100
     15 C3           4.5890    -0.2770     0.1660 ca         1 049      -0.127000
     16 C2           3.9420    -0.8050    -0.9450 ca         1 049      -0.125000
     17 C1           2.5790    -1.0610    -0.9020 ca         1 049      -0.124000
     18 H4           4.3560     0.3990     2.1900 ha         1 049       0.130500
     19 H5           1.9390    -0.0640     2.2620 ha         1 049       0.127000
     20 H7           0.0260     0.0830    -1.5030 h1         1 049       0.091700
     21 H8           0.1470    -2.0280    -0.1560 hc         1 049       0.058700
     22 H8A          0.0130    -1.0940     1.3150 hc         1 049       0.058700
     23 H9          -2.3630     0.5390    -1.2160 h1         1 049       0.097700
     24 H12         -4.7140    -1.4520     1.0230 h1         1 049       0.083700
     25 H12A        -4.1720    -1.9340    -0.6550 h1         1 049       0.083700
     26 H11         -1.7690     0.3320     2.1460 hc         1 049       0.046367
     27 H11A        -2.9370     1.3100     1.2580 hc         1 049       0.046367
     28 H11B        -3.4860     0.0460     2.3540 hc         1 049       0.046367
     29 HN22        -0.0850     1.3540     1.1060 hn         1 049       0.312500
     30 H18          0.8630     4.2330    -0.1390 hc         1 049       0.059700
     31 H18A        -0.8660     4.3810     0.1260 hc         1 049       0.059700
     32 H18B         0.1310     3.5200     1.3020 hc         1 049       0.059700
     33 H3           5.6530    -0.0800     0.1340 ha         1 049       0.131000
     34 H2           4.5020    -1.0230    -1.8450 ha         1 049       0.130500
     35 H1           2.0880    -1.4780    -1.7740 ha         1 049       0.127000
     36 O21         -1.9700    -1.3630    -1.7220 oh         1 049      -0.585800
     37 HO21        -1.7520    -2.2030    -1.3020 ho         1 049       0.413000
@<TRIPOS>BOND
     1     1     2 ar  
     2     1    15 ar  
     3     1    18 1   
     4     2     3 ar  
     5     2    19 1   
     6     3     5 1   
     7     3    17 ar  
     8     4     5 1   
     9     4     7 1   
    10     4    11 1   
    11     4    20 1   
    12     5    21 1   
    13     5    22 1   
    14     6     7 1   
    15     6     8 1   
    16     6     9 1   
    17     6    10 1   
    18     7    23 1   
    19     7    36 1   
    20     8     9 1   
    21     8    24 1   
    22     8    25 1   
    23    10    26 1   
    24    10    27 1   
    25    10    28 1   
    26    11    12 1   
    27    11    29 1   
    28    12    13 1   
    29    12    14 2   
    30    13    30 1   
    31    13    31 1   
    32    13    32 1   
    33    15    16 ar  
    34    15    33 1   
    35    16    17 ar  
    36    16    34 1   
    37    17    35 1   
    38    36    37 1   
@<TRIPOS>SUBSTRUCTURE
     1 049         1 TEMP              0 ****  ****    0 ROOT
