@<TRIPOS>MOLECULE
049
   37    38     1     0     0
SMALL
No Charge or Current Charge


@<TRIPOS>ATOM
      1 C4           3.8210    -0.1490     1.5110 ca         1 049      -0.107000
      2 C5           2.4570    -0.4790     1.4250 ca         1 049      -0.106000
      3 C6           1.8830    -0.8070     0.1800 ca         1 049      -0.081300
      4 C7          -0.4290    -0.0640    -0.6530 c3         1 049       0.088700
      5 C8           0.4000    -1.1540     0.0800 c3         1 049      -0.044100
      6 C10         -2.7190    -0.6940     0.5380 cx         1 049       0.061000
      7 C9          -1.9580    -0.3970    -0.7810 c3         1 049       0.173300
      8 C12         -4.0050    -1.4830     0.5100 cx         1 049       0.087600
      9 O13         -2.7610    -2.0800     0.9580 op         1 049      -0.454000
     10 C11         -2.5810     0.3550     1.6420 c3         1 049      -0.072100
     11 N22         -0.1600     1.2630    -0.0730 ns         1 049      -0.504900
     12 C23         -0.4140     2.4640    -0.6930 c          1 049       0.598100
     13 C18         -0.0110     3.6910     0.1120 c3         1 049      -0.179100
     14 O49         -0.9240     2.5400    -1.8010 o          1 049      -0.603100
     15 C3           4.6190    -0.1470     0.3550 ca         1 049      -0.109000
     16 C2           4.0530    -0.4750    -0.8880 ca         1 049      -0.107000
     17 C1           2.6890    -0.8050    -0.9750 ca         1 049      -0.106000
     18 H4           4.2590     0.1040     2.4740 ha         1 049       0.112500
     19 H5           1.8490    -0.4760     2.3260 ha         1 049       0.109000
     20 H7          -0.0430    -0.0240    -1.6810 h1         1 049       0.091700
     21 H8           0.2870    -2.1090    -0.4480 hc         1 049       0.058700
     22 H8A         -0.0130    -1.3150     1.0830 hc         1 049       0.058700
     23 H9          -2.4390     0.4830    -1.2310 h1         1 049       0.097700
     24 H12         -4.7480    -1.3200     1.2900 h1         1 049       0.083700
     25 H12A        -4.3920    -1.8540    -0.4390 h1         1 049       0.083700
     26 H11         -1.5580     0.3990     2.0310 hc         1 049       0.046367
     27 H11A        -2.8530     1.3510     1.2730 hc         1 049       0.046367
     28 H11B        -3.2350     0.1280     2.4930 hc         1 049       0.046367
     29 HN22         0.2970     1.3080     0.8290 hn         1 049       0.312500
     30 H18          1.0490     3.6110     0.3780 hc         1 049       0.059700
     31 H18A        -0.2280     4.6290    -0.4110 hc         1 049       0.059700
     32 H18B        -0.5000     3.6510     1.0920 hc         1 049       0.059700
     33 H3           5.6750     0.1080     0.4220 ha         1 049       0.113000
     34 H2           4.6700    -0.4750    -1.7840 ha         1 049       0.112500
     35 H1           2.2590    -1.0580    -1.9410 ha         1 049       0.109000
     36 O21         -2.1100    -1.5120    -1.6790 oh         1 049      -0.708000
     37 HO21        -2.1740    -2.3010    -1.0910 ho         1 049       0.512000
@<TRIPOS>BOND
     1     1     2 ar  
     2     1    15 ar  
     3     1    18 1   
     4     2     3 ar  
     5     2    19 1   
     6     3     5 1   
     7     3    17 ar  
     8     4     5 1   
     9     4     7 1   
    10     4    11 1   
    11     4    20 1   
    12     5    21 1   
    13     5    22 1   
    14     6     7 1   
    15     6     8 1   
    16     6     9 1   
    17     6    10 1   
    18     7    23 1   
    19     7    36 1   
    20     8     9 1   
    21     8    24 1   
    22     8    25 1   
    23    10    26 1   
    24    10    27 1   
    25    10    28 1   
    26    11    12 1   
    27    11    29 1   
    28    12    13 1   
    29    12    14 2   
    30    13    30 1   
    31    13    31 1   
    32    13    32 1   
    33    15    16 ar  
    34    15    33 1   
    35    16    17 ar  
    36    16    34 1   
    37    17    35 1   
    38    36    37 1   
@<TRIPOS>SUBSTRUCTURE
     1 049         1 TEMP              0 ****  ****    0 ROOT
