@<TRIPOS>MOLECULE
04A
   59    62     1     0     0
SMALL
No Charge or Current Charge


@<TRIPOS>ATOM
      1 OAA          6.5220    -5.5740    44.5240 o          1 04A      -0.557600
      2 OAB         -4.0110    -4.9780    44.7940 o          1 04A      -0.557600
      3 CAC          7.0760    -1.6680    48.2870 ca         1 04A      -0.100000
      4 CAD         -9.2120    -5.1440    43.1670 ca         1 04A      -0.100000
      5 CAE          7.4700    -2.8620    48.9140 ca         1 04A      -0.107750
      6 CAF          7.1220    -1.5640    46.8870 ca         1 04A      -0.107750
      7 CAG         -8.4800    -4.0650    43.6900 ca         1 04A      -0.107750
      8 CAH         -8.5530    -6.1530    42.4460 ca         1 04A      -0.107750
      9 CAI          7.9100    -3.9510    48.1420 ca         1 04A      -0.092500
     10 CAJ          7.5620    -2.6520    46.1140 ca         1 04A      -0.092500
     11 CAK         -7.0900    -3.9950    43.4920 ca         1 04A      -0.092500
     12 CAL         -7.1630    -6.0840    42.2470 ca         1 04A      -0.092500
     13 CAM          1.9160   -10.2110    46.1360 c3         1 04A       0.068100
     14 CAN          0.0500    -8.6590    47.6440 c3         1 04A       0.068100
     15 CAP         -1.1740    -9.4860    47.1960 c3         1 04A      -0.100700
     16 CAQ          8.4300    -5.0350    45.8950 c3         1 04A      -0.095600
     17 CAR         -4.9130    -4.9290    42.5590 c3         1 04A      -0.095600
     18 NAS          5.0520    -9.9170    46.6740 nc         1 04A      -0.306500
     19 NAT         -2.0180    -9.6320    44.8730 nc         1 04A      -0.306500
     20 NAU          6.0940    -9.0380    46.9270 nc         1 04A      -0.395500
     21 NAV         -2.7000    -8.9080    43.9060 nc         1 04A      -0.395500
     22 NAW          7.0550    -7.0390    46.2030 ns         1 04A      -0.471400
     23 NAX         -3.7180    -6.8480    43.5040 ns         1 04A      -0.471400
     24 SAY          1.2940    -8.4730    46.2820 ss         1 04A      -0.443000
     25 SAZ          4.8110    -8.0130    44.8960 ss         1 04A      -0.174300
     26 SBA         -2.5610    -7.3240    45.9790 ss         1 04A      -0.174300
     27 CBB          7.2410    -5.8990    45.4560 c          1 04A       0.602100
     28 CBC         -4.1680    -5.5690    43.7370 c          1 04A       0.602100
     29 CBD          7.9590    -3.8520    46.7370 ca         1 04A      -0.089800
     30 CBE         -6.4230    -5.0040    42.7680 ca         1 04A      -0.089800
     31 CBF          4.3090    -9.4950    45.6600 cd         1 04A       0.373200
     32 CBG         -1.8670    -8.9220    45.9820 cd         1 04A       0.373200
     33 CBH          6.0910    -8.0080    46.0910 cd         1 04A       0.513800
     34 CBI         -3.0370    -7.7000    44.3360 cd         1 04A       0.513800
     35 HAC          6.7360    -0.8250    48.8850 ha         1 04A       0.115500
     36 HAE          7.4350    -2.9440    49.9980 ha         1 04A       0.116250
     37 HAF          6.8160    -0.6400    46.4000 ha         1 04A       0.116250
     38 HAG         -8.9890    -3.2830    44.2500 ha         1 04A       0.116250
     39 HAH         -9.1190    -6.9900    42.0420 ha         1 04A       0.116250
     40 HAI          8.2120    -4.8700    48.6380 ha         1 04A       0.113750
     41 HAJ          7.5910    -2.5630    45.0300 ha         1 04A       0.113750
     42 HAK         -6.5310    -3.1570    43.9030 ha         1 04A       0.113750
     43 HAL         -6.6640    -6.8730    41.6880 ha         1 04A       0.113750
     44 HAM          1.1100   -10.8530    45.7560 h1         1 04A       0.074200
     45 HAMA         2.2110   -10.5790    47.1280 h1         1 04A       0.074200
     46 HAN          0.5280    -9.1400    48.5080 h1         1 04A       0.074200
     47 HANA        -0.2780    -7.6590    47.9570 h1         1 04A       0.074200
     48 HAP         -0.8650   -10.5200    47.0090 hc         1 04A       0.071200
     49 HAPA        -1.8870    -9.5310    48.0270 hc         1 04A       0.071200
     50 HAQ          9.1320    -5.6370    46.4850 hc         1 04A       0.073200
     51 HAQA         8.9410    -4.6650    44.9990 hc         1 04A       0.073200
     52 HAR         -4.6550    -5.4470    41.6280 hc         1 04A       0.073200
     53 HARA        -4.6070    -3.8800    42.4830 hc         1 04A       0.073200
     54 HNAW         7.7290    -7.1660    46.9430 hn         1 04A       0.343500
     55 HNAX        -3.9320    -7.2030    42.5830 hn         1 04A       0.343500
     56 CAO          3.1180   -10.2780    45.1750 c3         1 04A      -0.100700
     57 HAD        -10.2880    -5.1980    43.3210 ha         1 04A       0.115500
     58 HAO          3.4030   -11.3280    45.0410 hc         1 04A       0.071200
     59 HAOA         2.8070    -9.9160    44.1880 hc         1 04A       0.071200
@<TRIPOS>BOND
     1     1    27 2   
     2     2    28 2   
     3     3     5 ar  
     4     3     6 ar  
     5     3    35 1   
     6     4     7 ar  
     7     4     8 ar  
     8     4    57 1   
     9     5     9 ar  
    10     5    36 1   
    11     6    10 ar  
    12     6    37 1   
    13     7    11 ar  
    14     7    38 1   
    15     8    12 ar  
    16     8    39 1   
    17     9    29 ar  
    18     9    40 1   
    19    10    29 ar  
    20    10    41 1   
    21    11    30 ar  
    22    11    42 1   
    23    12    30 ar  
    24    12    43 1   
    25    13    24 1   
    26    13    44 1   
    27    13    45 1   
    28    13    56 1   
    29    14    15 1   
    30    14    24 1   
    31    14    46 1   
    32    14    47 1   
    33    15    32 1   
    34    15    48 1   
    35    15    49 1   
    36    16    27 1   
    37    16    29 1   
    38    16    50 1   
    39    16    51 1   
    40    17    28 1   
    41    17    30 1   
    42    17    52 1   
    43    17    53 1   
    44    18    20 1   
    45    18    31 2   
    46    19    21 1   
    47    19    32 2   
    48    20    33 2   
    49    21    34 2   
    50    22    27 1   
    51    22    33 1   
    52    22    54 1   
    53    23    28 1   
    54    23    34 1   
    55    23    55 1   
    56    25    31 1   
    57    25    33 1   
    58    26    32 1   
    59    26    34 1   
    60    31    56 1   
    61    56    58 1   
    62    56    59 1   
@<TRIPOS>SUBSTRUCTURE
     1 04A         1 TEMP              0 ****  ****    0 ROOT
