@<TRIPOS>MOLECULE
04A
   59    62     1     0     0
SMALL
abcg2


@<TRIPOS>ATOM
      1 OAA          6.2990    -5.5700    45.5670 o          1 04A      -0.557600
      2 OAB         -4.0510    -5.2930    45.0340 o          1 04A      -0.557600
      3 CAC          7.4420    -1.0120    47.1910 ca         1 04A      -0.100000
      4 CAD         -9.1910    -5.2940    43.4250 ca         1 04A      -0.100000
      5 CAE          7.0400    -1.8640    48.2150 ca         1 04A      -0.107750
      6 CAF          8.1180    -1.5290    46.0900 ca         1 04A      -0.107750
      7 CAG         -8.5220    -4.2590    44.0720 ca         1 04A      -0.107750
      8 CAH         -8.4870    -6.1520    42.5850 ca         1 04A      -0.107750
      9 CAI          7.3120    -3.2250    48.1360 ca         1 04A      -0.092500
     10 CAJ          8.3880    -2.8920    46.0150 ca         1 04A      -0.092500
     11 CAK         -7.1550    -4.0850    43.8810 ca         1 04A      -0.092500
     12 CAL         -7.1200    -5.9760    42.3950 ca         1 04A      -0.092500
     13 CAM          1.8360   -10.2130    45.7250 c3         1 04A       0.068100
     14 CAN         -0.0490    -9.0020    47.4060 c3         1 04A       0.068100
     15 CAP         -1.2360    -9.7980    46.8500 c3         1 04A      -0.100700
     16 CAQ          8.2560    -5.2310    46.9530 c3         1 04A      -0.095600
     17 CAR         -4.9500    -4.7720    42.8570 c3         1 04A      -0.095600
     18 NAS          4.9690   -10.1580    46.4240 nc         1 04A      -0.306500
     19 NAT         -1.9780    -9.6570    44.5080 nc         1 04A      -0.306500
     20 NAU          5.9820    -9.4080    46.9610 nc         1 04A      -0.395500
     21 NAV         -2.6300    -8.8630    43.6000 nc         1 04A      -0.395500
     22 NAW          6.9650    -7.2920    46.8720 ns         1 04A      -0.471400
     23 NAX         -3.7180    -6.8090    43.3860 ns         1 04A      -0.471400
     24 SAY          1.2240    -8.5560    46.1850 ss         1 04A      -0.443000
     25 SAZ          4.7970    -7.8830    45.2790 ss         1 04A      -0.174300
     26 SBA         -2.6740    -7.5750    45.8160 ss         1 04A      -0.174300
     27 CBB          7.0780    -6.0120    46.3970 c          1 04A       0.602100
     28 CBC         -4.1990    -5.6200    43.8650 c          1 04A       0.602100
     29 CBD          7.9880    -3.7520    47.0350 ca         1 04A      -0.089800
     30 CBE         -6.4430    -4.9410    43.0410 ca         1 04A      -0.089800
     31 CBF          4.2620    -9.5190    45.5440 cd         1 04A       0.373200
     32 CBG         -1.9140    -9.1420    45.6960 cd         1 04A       0.373200
     33 CBH          6.0190    -8.2030    46.4640 cd         1 04A       0.513800
     34 CBI         -3.0460    -7.7490    44.1320 cd         1 04A       0.513800
     35 HAC          7.2340     0.0490    47.2520 ha         1 04A       0.115500
     36 HAE          6.5170    -1.4680    49.0770 ha         1 04A       0.116250
     37 HAF          8.4380    -0.8720    45.2910 ha         1 04A       0.116250
     38 HAG         -9.0630    -3.5840    44.7230 ha         1 04A       0.116250
     39 HAH         -9.0010    -6.9560    42.0750 ha         1 04A       0.116250
     40 HAI          7.0000    -3.8850    48.9370 ha         1 04A       0.113750
     41 HAJ          8.9170    -3.2910    45.1570 ha         1 04A       0.113750
     42 HAK         -6.6360    -3.2770    44.3830 ha         1 04A       0.113750
     43 HAL         -6.5760    -6.6430    41.7380 ha         1 04A       0.113750
     44 HAM          1.0590   -10.7460    45.1780 h1         1 04A       0.074200
     45 HAMA         2.0650   -10.7620    46.6390 h1         1 04A       0.074200
     46 HAN          0.4180    -9.5660    48.2140 h1         1 04A       0.074200
     47 HANA        -0.3830    -8.0490    47.8160 h1         1 04A       0.074200
     48 HAP         -0.9140   -10.7860    46.5200 hc         1 04A       0.071200
     49 HAPA        -1.9520    -9.9460    47.6640 hc         1 04A       0.071200
     50 HAQ          8.5280    -5.6290    47.9310 hc         1 04A       0.073200
     51 HAQA         9.0960    -5.4300    46.2810 hc         1 04A       0.073200
     52 HAR         -4.6600    -5.0460    41.8430 hc         1 04A       0.073200
     53 HARA        -4.6610    -3.7370    43.0340 hc         1 04A       0.073200
     54 HNAW         7.6190    -7.6230    47.5690 hn         1 04A       0.343500
     55 HNAX        -3.8600    -7.0440    42.4130 hn         1 04A       0.343500
     56 CAO          3.0820   -10.1120    44.8400 c3         1 04A      -0.100700
     57 HAD        -10.2550    -5.4280    43.5710 ha         1 04A       0.115500
     58 HAO          3.3500   -11.1210    44.5200 hc         1 04A       0.071200
     59 HAOA         2.8570    -9.5360    43.9420 hc         1 04A       0.071200
@<TRIPOS>BOND
     1     1    27 2   
     2     2    28 2   
     3     3     5 ar  
     4     3     6 ar  
     5     3    35 1   
     6     4     7 ar  
     7     4     8 ar  
     8     4    57 1   
     9     5     9 ar  
    10     5    36 1   
    11     6    10 ar  
    12     6    37 1   
    13     7    11 ar  
    14     7    38 1   
    15     8    12 ar  
    16     8    39 1   
    17     9    29 ar  
    18     9    40 1   
    19    10    29 ar  
    20    10    41 1   
    21    11    30 ar  
    22    11    42 1   
    23    12    30 ar  
    24    12    43 1   
    25    13    24 1   
    26    13    44 1   
    27    13    45 1   
    28    13    56 1   
    29    14    15 1   
    30    14    24 1   
    31    14    46 1   
    32    14    47 1   
    33    15    32 1   
    34    15    48 1   
    35    15    49 1   
    36    16    27 1   
    37    16    29 1   
    38    16    50 1   
    39    16    51 1   
    40    17    28 1   
    41    17    30 1   
    42    17    52 1   
    43    17    53 1   
    44    18    20 1   
    45    18    31 2   
    46    19    21 1   
    47    19    32 2   
    48    20    33 2   
    49    21    34 2   
    50    22    27 1   
    51    22    33 1   
    52    22    54 1   
    53    23    28 1   
    54    23    34 1   
    55    23    55 1   
    56    25    31 1   
    57    25    33 1   
    58    26    32 1   
    59    26    34 1   
    60    31    56 1   
    61    56    58 1   
    62    56    59 1   
@<TRIPOS>SUBSTRUCTURE
     1 04A         1 TEMP              0 ****  ****    0 ROOT
