@<TRIPOS>MOLECULE
04B
   34    34     1     0     0
SMALL
No Charge or Current Charge


@<TRIPOS>ATOM
      1 N22          0.2420    -0.3340    -1.5920 n8         1 04B      -1.005200
      2 C8           0.3580    -0.2690    -0.1090 c3         1 04B       0.139500
      3 C9           1.7510    -0.7910     0.4090 c3         1 04B       0.123300
      4 H3           1.7330    -0.7020     1.5060 h1         1 04B       0.077700
      5 O20          1.9020    -2.1790     0.0520 oh         1 04B      -0.649000
      6 C10          3.0030     0.0100    -0.0920 c3         1 04B      -0.094700
      7 C11          4.3250    -0.5910     0.4730 c3         1 04B      -0.080100
      8 C12          2.9020     1.5280     0.2370 c3         1 04B       0.164600
      9 O13          4.0100     2.2460    -0.3200 oh         1 04B      -0.660000
     10 C7          -0.8330    -1.0050     0.5690 c3         1 04B      -0.021100
     11 C6          -2.1900    -0.3550     0.3040 ca         1 04B      -0.064300
     12 C5          -2.5180     0.8730     0.9140 ca         1 04B      -0.101000
     13 C4          -3.7700     1.4690     0.6830 ca         1 04B      -0.110500
     14 C3          -4.7040     0.8410    -0.1580 ca         1 04B      -0.112000
     15 C2          -4.3850    -0.3840    -0.7660 ca         1 04B      -0.110500
     16 C1          -3.1330    -0.9810    -0.5360 ca         1 04B      -0.101000
     17 H28          1.0850     0.0660    -2.0170 hn         1 04B       0.398500
     18 H29          0.2700     0.7860     0.1840 h1         1 04B       0.065700
     19 H35          5.2020    -0.0540     0.0930 hc         1 04B       0.042367
     20 H36          4.3400    -0.5340     1.5690 hc         1 04B       0.042367
     21 H37          4.4470    -1.6410     0.1850 hc         1 04B       0.042367
     22 H38          1.9720     1.9390    -0.1750 h1         1 04B       0.020200
     23 H39          2.8710     1.6610     1.3270 h1         1 04B       0.020200
     24 H40          3.8940     3.1900    -0.0710 ho         1 04B       0.445000
     25 H45         -0.8430    -2.0550     0.2500 hc         1 04B       0.053200
     26 H46         -0.6600    -1.0270     1.6520 hc         1 04B       0.053200
     27 H47         -1.8020     1.3640     1.5690 ha         1 04B       0.106500
     28 H48         -4.0150     2.4170     1.1570 ha         1 04B       0.109500
     29 H49         -5.6730     1.3030    -0.3360 ha         1 04B       0.110000
     30 H50         -5.1080    -0.8720    -1.4170 ha         1 04B       0.109500
     31 H51         -2.8960    -1.9300    -1.0120 ha         1 04B       0.106500
     32 H2           0.2590    -1.3180    -1.8820 hn         1 04B       0.398500
     33 H1           2.2410    -2.2040    -0.8670 ho         1 04B       0.434000
     34 H32          3.0500    -0.0810    -1.1840 hc         1 04B       0.048700
@<TRIPOS>BOND
     1     1     2 1   
     2     1    17 1   
     3     1    32 1   
     4     2     3 1   
     5     2    10 1   
     6     2    18 1   
     7     3     4 1   
     8     3     5 1   
     9     3     6 1   
    10     5    33 1   
    11     6     7 1   
    12     6     8 1   
    13     6    34 1   
    14     7    19 1   
    15     7    20 1   
    16     7    21 1   
    17     8     9 1   
    18     8    22 1   
    19     8    23 1   
    20     9    24 1   
    21    10    11 1   
    22    10    25 1   
    23    10    26 1   
    24    11    12 ar  
    25    11    16 ar  
    26    12    13 ar  
    27    12    27 1   
    28    13    14 ar  
    29    13    28 1   
    30    14    15 ar  
    31    14    29 1   
    32    15    16 ar  
    33    15    30 1   
    34    16    31 1   
@<TRIPOS>SUBSTRUCTURE
     1 04B         1 TEMP              0 ****  ****    0 ROOT
