@<TRIPOS>MOLECULE
04B
   34    34     1     0     0
SMALL
bcc


@<TRIPOS>ATOM
      1 N22          0.1950    -0.2940    -1.5070 n8         1 04B      -0.894800
      2 C8           0.3750    -0.2310    -0.0680 c3         1 04B       0.139500
      3 C9           1.7350    -0.7490     0.4440 c3         1 04B       0.100100
      4 H3           1.7470    -0.6130     1.5330 h1         1 04B       0.077700
      5 O20          1.8460    -2.1450     0.2420 oh         1 04B      -0.586800
      6 C10          2.9530    -0.0090    -0.1340 c3         1 04B      -0.094700
      7 C11          4.2500    -0.5750     0.4410 c3         1 04B      -0.080100
      8 C12          2.8520     1.4910     0.1290 c3         1 04B       0.141400
      9 O13          4.0000     2.1340    -0.3790 oh         1 04B      -0.597800
     10 C7          -0.7720    -0.9720     0.6290 c3         1 04B      -0.021100
     11 C6          -2.1130    -0.3610     0.3430 ca         1 04B      -0.064300
     12 C5          -2.5410     0.7650     1.0450 ca         1 04B      -0.119000
     13 C4          -3.7710     1.3510     0.7790 ca         1 04B      -0.128500
     14 C3          -4.6010     0.8140    -0.1970 ca         1 04B      -0.130000
     15 C2          -4.1890    -0.3090    -0.9020 ca         1 04B      -0.128500
     16 C1          -2.9550    -0.8870    -0.6330 ca         1 04B      -0.119000
     17 H28          0.9240     0.2150    -1.9900 hn         1 04B       0.343300
     18 H29          0.2930     0.8220     0.2250 h1         1 04B       0.065700
     19 H35          5.1220    -0.0970    -0.0030 hc         1 04B       0.042367
     20 H36          4.2990    -0.4190     1.5220 hc         1 04B       0.042367
     21 H37          4.3350    -1.6450     0.2560 hc         1 04B       0.042367
     22 H38          1.9500     1.9000    -0.3410 h1         1 04B       0.020200
     23 H39          2.7450     1.6540     1.2120 h1         1 04B       0.020200
     24 H40          3.9100     3.0760    -0.2120 ho         1 04B       0.406000
     25 H45         -0.7680    -2.0220     0.3250 hc         1 04B       0.053200
     26 H46         -0.5870    -0.9600     1.7070 hc         1 04B       0.053200
     27 H47         -1.9030     1.1880     1.8130 ha         1 04B       0.124500
     28 H48         -4.0850     2.2240     1.3370 ha         1 04B       0.127500
     29 H49         -5.5640     1.2650    -0.4040 ha         1 04B       0.128000
     30 H50         -4.8290    -0.7380    -1.6620 ha         1 04B       0.127500
     31 H51         -2.6450    -1.7670    -1.1850 ha         1 04B       0.124500
     32 H2           0.2360    -1.2500    -1.8400 hn         1 04B       0.343300
     33 H1           1.9210    -2.3090    -0.7050 ho         1 04B       0.395000
     34 H32          2.9630    -0.1620    -1.2220 hc         1 04B       0.048700
@<TRIPOS>BOND
     1     1     2 1   
     2     1    17 1   
     3     1    32 1   
     4     2     3 1   
     5     2    10 1   
     6     2    18 1   
     7     3     4 1   
     8     3     5 1   
     9     3     6 1   
    10     5    33 1   
    11     6     7 1   
    12     6     8 1   
    13     6    34 1   
    14     7    19 1   
    15     7    20 1   
    16     7    21 1   
    17     8     9 1   
    18     8    22 1   
    19     8    23 1   
    20     9    24 1   
    21    10    11 1   
    22    10    25 1   
    23    10    26 1   
    24    11    12 ar  
    25    11    16 ar  
    26    12    13 ar  
    27    12    27 1   
    28    13    14 ar  
    29    13    28 1   
    30    14    15 ar  
    31    14    29 1   
    32    15    16 ar  
    33    15    30 1   
    34    16    31 1   
@<TRIPOS>SUBSTRUCTURE
     1 04B         1 TEMP              0 ****  ****    0 ROOT
