@<TRIPOS>MOLECULE
04C
   86    88     1     0     0
SMALL
abcg2


@<TRIPOS>ATOM
      1 C29         -3.9940    -0.5380    -0.9280 c          1 04C       0.605100
      2 O37         -4.1950    -1.3620    -0.0530 o          1 04C      -0.589100
      3 C30         -5.0090     0.5320    -1.3110 c3         1 04C       0.085800
      4 N31         -6.3470     0.2030    -0.9120 n3         1 04C      -0.705600
      5 O34         -9.1540    -0.1000    -1.1640 os         1 04C      -0.450000
      6 C36         -6.9200    -0.8810    -1.6890 c6         1 04C       0.126300
      7 C32         -7.2290     1.3540    -0.9500 c6         1 04C       0.126300
      8 C35         -8.2970    -1.2220    -1.1540 c6         1 04C       0.154100
      9 C33         -8.5980     0.9650    -0.4260 c6         1 04C       0.154100
     10 N28         -2.8530    -0.4580    -1.6400 ns         1 04C      -0.498900
     11 C27         -1.6410    -1.1730    -1.3320 c3         1 04C       0.034700
     12 C26         -0.5950    -0.1870    -0.8090 c          1 04C       0.589100
     13 O39         -0.5440     0.9590    -1.2210 o          1 04C      -0.611100
     14 C38         -1.0990    -1.8910    -2.5660 c3         1 04C      -0.103100
     15 N25          0.2650    -0.7070     0.0830 ns         1 04C      -0.480900
     16 C24          1.2530     0.0770     0.7710 c3         1 04C       0.025700
     17 C40          0.8450     0.3430     2.2380 c3         1 04C      -0.036100
     18 C41         -0.5570     0.8690     2.3220 ca         1 04C      -0.131300
     19 C48         -0.8390     2.2230     2.1520 ca         1 04C      -0.065000
     20 C47         -2.1390     2.6920     2.1390 ca         1 04C      -0.166000
     21 C44         -3.2080     1.8050     2.2850 ca         1 04C       0.140100
     22 O45         -4.4460     2.3380     2.2410 os         1 04C      -0.349100
     23 C46         -5.5540     1.4750     2.4080 c3         1 04C       0.134900
     24 C43         -2.9440     0.4510     2.4660 ca         1 04C      -0.166000
     25 C42         -1.6300     0.0030     2.4820 ca         1 04C      -0.065000
     26 C23          2.5920    -0.6500     0.7350 c          1 04C       0.594100
     27 O49          2.6540    -1.8620     0.8320 o          1 04C      -0.583100
     28 N22          3.6650     0.1630     0.6600 ns         1 04C      -0.505900
     29 C8           5.0190    -0.2980     0.4150 c3         1 04C       0.066700
     30 C9           5.9590     0.4090     1.4030 c3         1 04C       0.171300
     31 O21          5.5520     0.1540     2.7270 oh         1 04C      -0.653000
     32 C10          7.4250    -0.0030     1.2640 c3         1 04C      -0.052700
     33 C11          7.6500    -1.5040     1.4210 c3         1 04C      -0.085100
     34 C12          8.2760     0.8000     2.2430 c3         1 04C       0.166600
     35 O13          9.6380     0.6110     1.9260 oh         1 04C      -0.667000
     36 C7           5.3960    -0.0510    -1.0540 c3         1 04C      -0.051100
     37 C6           4.4170    -0.6830    -2.0000 ca         1 04C      -0.084300
     38 C5           4.5800    -2.0090    -2.3950 ca         1 04C      -0.102000
     39 C4           3.6550    -2.6240    -3.2260 ca         1 04C      -0.105000
     40 C3           2.5420    -1.9220    -3.6700 ca         1 04C      -0.112000
     41 C2           2.3670    -0.6010    -3.2820 ca         1 04C      -0.105000
     42 C1           3.3010     0.0130    -2.4590 ca         1 04C      -0.102000
     43 H1          -4.7010     1.4470    -0.7920 h1         1 04C       0.053700
     44 H2          -4.9230     0.7540    -2.3890 h1         1 04C       0.053700
     45 H4          -6.9930    -0.6160    -2.7580 h1         1 04C       0.044450
     46 H5          -6.2900    -1.7690    -1.6160 h1         1 04C       0.044450
     47 H10         -6.8210     2.1500    -0.3220 h1         1 04C       0.044450
     48 H11         -7.3270     1.7660    -1.9690 h1         1 04C       0.044450
     49 H6          -8.1980    -1.6200    -0.1340 h1         1 04C       0.052450
     50 H7          -8.7600    -1.9920    -1.7730 h1         1 04C       0.052450
     51 H8          -9.2840     1.8100    -0.5030 h1         1 04C       0.052450
     52 H9          -8.5140     0.6940     0.6360 h1         1 04C       0.052450
     53 H12         -2.7710     0.2820    -2.3210 hn         1 04C       0.323500
     54 H13         -1.8730    -1.9070    -0.5600 h1         1 04C       0.091700
     55 H14         -0.9400    -1.1870    -3.3840 hc         1 04C       0.050700
     56 H15         -0.1470    -2.3740    -2.3500 hc         1 04C       0.050700
     57 H16         -1.8030    -2.6510    -2.9010 hc         1 04C       0.050700
     58 H17          0.1290    -1.6560     0.3920 hn         1 04C       0.332500
     59 H18          1.3250     1.0340     0.2540 h1         1 04C       0.088700
     60 H19          0.9330    -0.5840     2.8100 hc         1 04C       0.056700
     61 H20          1.5540     1.0520     2.6710 hc         1 04C       0.056700
     62 H21         -0.0260     2.9290     2.0270 ha         1 04C       0.109000
     63 H27         -1.4490    -1.0570     2.6180 ha         1 04C       0.109000
     64 H22         -2.3370     3.7490     2.0100 ha         1 04C       0.129000
     65 H26         -3.7420    -0.2700     2.5720 ha         1 04C       0.129000
     66 H23         -5.6140     0.7210     1.6170 h1         1 04C       0.048367
     67 H24         -5.5370     0.9710     3.3780 h1         1 04C       0.048367
     68 H25         -6.4420     2.1010     2.3590 h1         1 04C       0.048367
     69 H30          5.9020     1.4900     1.1860 h1         1 04C       0.020700
     70 H28          3.4880     1.1390     0.4710 hn         1 04C       0.304500
     71 H29          5.0280    -1.3710     0.6160 h1         1 04C       0.102700
     72 H33          7.3020    -1.8600     2.3920 hc         1 04C       0.042367
     73 H34          7.1360    -2.0810     0.6510 hc         1 04C       0.042367
     74 H35          8.7100    -1.7440     1.3390 hc         1 04C       0.042367
     75 H36          8.0000     1.8620     2.1720 h1         1 04C       0.026700
     76 H37          8.0600     0.4810     3.2690 h1         1 04C       0.026700
     77 H38         10.1650     0.9860     2.6370 ho         1 04C       0.444000
     78 H39          5.4610     1.0280    -1.2300 hc         1 04C       0.055700
     79 H40          6.3930    -0.4550    -1.2390 hc         1 04C       0.055700
     80 H41          5.4430    -2.5670    -2.0480 ha         1 04C       0.109500
     81 H42          3.8030    -3.6540    -3.5270 ha         1 04C       0.115000
     82 H43          1.8190    -2.4020    -4.3160 ha         1 04C       0.110000
     83 H44          1.5020    -0.0440    -3.6200 ha         1 04C       0.115000
     84 H45          3.1570     1.0490    -2.1720 ha         1 04C       0.109500
     85 H31          4.6310     0.4220     2.8120 ho         1 04C       0.449000
     86 H32          7.7410     0.2970     0.2590 hc         1 04C       0.058700
@<TRIPOS>BOND
     1     1     2 2   
     2     1     3 1   
     3     1    10 1   
     4     3     4 1   
     5     3    43 1   
     6     3    44 1   
     7     4     6 1   
     8     4     7 1   
     9     5     8 1   
    10     5     9 1   
    11     6     8 1   
    12     6    45 1   
    13     6    46 1   
    14     7     9 1   
    15     7    47 1   
    16     7    48 1   
    17     8    49 1   
    18     8    50 1   
    19     9    51 1   
    20     9    52 1   
    21    10    11 1   
    22    10    53 1   
    23    11    12 1   
    24    11    14 1   
    25    11    54 1   
    26    12    13 2   
    27    12    15 1   
    28    14    55 1   
    29    14    56 1   
    30    14    57 1   
    31    15    16 1   
    32    15    58 1   
    33    16    17 1   
    34    16    26 1   
    35    16    59 1   
    36    17    18 1   
    37    17    60 1   
    38    17    61 1   
    39    18    19 ar  
    40    18    25 ar  
    41    19    20 ar  
    42    19    62 1   
    43    20    21 ar  
    44    20    64 1   
    45    21    22 1   
    46    21    24 ar  
    47    22    23 1   
    48    23    66 1   
    49    23    67 1   
    50    23    68 1   
    51    24    25 ar  
    52    24    65 1   
    53    25    63 1   
    54    26    27 2   
    55    26    28 1   
    56    28    29 1   
    57    28    70 1   
    58    29    30 1   
    59    29    36 1   
    60    29    71 1   
    61    30    31 1   
    62    30    32 1   
    63    30    69 1   
    64    31    85 1   
    65    32    33 1   
    66    32    34 1   
    67    32    86 1   
    68    33    72 1   
    69    33    73 1   
    70    33    74 1   
    71    34    35 1   
    72    34    75 1   
    73    34    76 1   
    74    35    77 1   
    75    36    37 1   
    76    36    78 1   
    77    36    79 1   
    78    37    38 ar  
    79    37    42 ar  
    80    38    39 ar  
    81    38    80 1   
    82    39    40 ar  
    83    39    81 1   
    84    40    41 ar  
    85    40    82 1   
    86    41    42 ar  
    87    41    83 1   
    88    42    84 1   
@<TRIPOS>SUBSTRUCTURE
     1 04C         1 TEMP              0 ****  ****    0 ROOT
