@<TRIPOS>MOLECULE
04C
   86    88     1     0     0
SMALL
No Charge or Current Charge


@<TRIPOS>ATOM
      1 C29         -4.2050    -0.7220    -1.0190 c          1 04C       0.605100
      2 O37         -4.4350    -1.8030    -0.4890 o          1 04C      -0.589100
      3 C30         -5.2930     0.3490    -1.3510 c3         1 04C       0.085800
      4 N31         -6.7280     0.0770    -1.0000 n3         1 04C      -0.705600
      5 O34         -9.5880    -0.0860    -1.4990 os         1 04C      -0.450000
      6 C36         -7.3330    -1.0500    -1.7810 c6         1 04C       0.126300
      7 C32         -7.5870     1.2980    -1.0900 c6         1 04C       0.126300
      8 C35         -8.8140    -1.3030    -1.3710 c6         1 04C       0.154100
      9 C33         -9.0620     0.9960    -0.6930 c6         1 04C       0.154100
     10 N28         -2.9210    -0.3440    -1.3560 ns         1 04C      -0.498900
     11 C27         -1.7000    -1.1230    -1.0610 c3         1 04C       0.034700
     12 C26         -0.5320    -0.1540    -0.7370 c          1 04C       0.589100
     13 O39         -0.4910     0.9990    -1.1530 o          1 04C      -0.611100
     14 C38         -1.3560    -2.0640    -2.2350 c3         1 04C      -0.103100
     15 N25          0.4410    -0.6710     0.0910 ns         1 04C      -0.480900
     16 C24          1.4650     0.1440     0.7840 c3         1 04C       0.025700
     17 C40          0.9810     0.5360     2.2080 c3         1 04C      -0.036100
     18 C41         -0.4790     0.9880     2.2370 ca         1 04C      -0.131300
     19 C48         -0.8260     2.2990     1.8610 ca         1 04C      -0.065000
     20 C47         -2.1770     2.6840     1.8050 ca         1 04C      -0.166000
     21 C44         -3.1930     1.7670     2.1200 ca         1 04C       0.140100
     22 O45         -4.5020     2.1930     2.0210 os         1 04C      -0.349100
     23 C46         -5.6150     1.3230     2.2990 c3         1 04C       0.134900
     24 C43         -2.8480     0.4560     2.5120 ca         1 04C      -0.166000
     25 C42         -1.4970     0.0740     2.5730 ca         1 04C      -0.065000
     26 C23          2.8140    -0.6160     0.8290 c          1 04C       0.594100
     27 O49          2.8890    -1.8390     0.8450 o          1 04C      -0.583100
     28 N22          3.9360     0.1910     0.8230 ns         1 04C      -0.505900
     29 C8           5.2950    -0.2860     0.4960 c3         1 04C       0.066700
     30 C9           6.3550     0.3350     1.4610 c3         1 04C       0.171300
     31 O21          5.9300     0.1180     2.8140 oh         1 04C      -0.653000
     32 C10          7.8230    -0.1700     1.2790 c3         1 04C      -0.052700
     33 C11          7.9740    -1.7090     1.4470 c3         1 04C      -0.085100
     34 C12          8.7930     0.6120     2.2050 c3         1 04C       0.166600
     35 O13         10.1580     0.3670     1.8360 oh         1 04C      -0.667000
     36 C7           5.5870    -0.0310    -1.0100 c3         1 04C      -0.051100
     37 C6           4.4540    -0.4960    -1.9220 ca         1 04C      -0.084300
     38 C5           4.3210    -1.8600    -2.2470 ca         1 04C      -0.102000
     39 C4           3.2480    -2.2990    -3.0440 ca         1 04C      -0.105000
     40 C3           2.3010    -1.3760    -3.5190 ca         1 04C      -0.112000
     41 C2           2.4300    -0.0140    -3.2020 ca         1 04C      -0.105000
     42 C1           3.5040     0.4250    -2.4090 ca         1 04C      -0.102000
     43 H1          -4.9660     1.2600    -0.8330 h1         1 04C       0.053700
     44 H2          -5.2090     0.5600    -2.4250 h1         1 04C       0.053700
     45 H4          -7.3010    -0.8270    -2.8580 h1         1 04C       0.044450
     46 H5          -6.7670    -1.9800    -1.6290 h1         1 04C       0.044450
     47 H10         -7.1990     2.0880    -0.4300 h1         1 04C       0.044450
     48 H11         -7.5730     1.7000    -2.1140 h1         1 04C       0.044450
     49 H6          -8.8600    -1.6550    -0.3300 h1         1 04C       0.052450
     50 H7          -9.2530    -2.0790    -2.0140 h1         1 04C       0.052450
     51 H8          -9.6820     1.8910    -0.8430 h1         1 04C       0.052450
     52 H9          -9.1150     0.7170     0.3690 h1         1 04C       0.052450
     53 H12         -2.8060     0.5790    -1.7610 hn         1 04C       0.323500
     54 H13         -1.8740    -1.7250    -0.1600 h1         1 04C       0.091700
     55 H14         -1.1680    -1.4890    -3.1500 hc         1 04C       0.050700
     56 H15         -0.4590    -2.6530    -2.0090 hc         1 04C       0.050700
     57 H16         -2.1820    -2.7590    -2.4280 hc         1 04C       0.050700
     58 H17          0.3580    -1.6490     0.3470 hn         1 04C       0.332500
     59 H18          1.6300     1.0620     0.2040 h1         1 04C       0.088700
     60 H19          1.1090    -0.3270     2.8740 hc         1 04C       0.056700
     61 H20          1.6340     1.3220     2.6070 hc         1 04C       0.056700
     62 H21         -0.0510     3.0130     1.5880 ha         1 04C       0.109000
     63 H27         -1.2430    -0.9450     2.8580 ha         1 04C       0.109000
     64 H22         -2.4400     3.6930     1.5010 ha         1 04C       0.129000
     65 H26         -3.6080    -0.2780     2.7620 ha         1 04C       0.129000
     66 H23         -5.6010     0.4450     1.6420 h1         1 04C       0.048367
     67 H24         -5.5920     0.9810     3.3420 h1         1 04C       0.048367
     68 H25         -6.5620     1.8530     2.1370 h1         1 04C       0.048367
     69 H30          6.3600     1.4160     1.2690 h1         1 04C       0.020700
     70 H28          3.7700     1.1910     0.8020 hn         1 04C       0.304500
     71 H29          5.3120    -1.3730     0.6460 h1         1 04C       0.102700
     72 H33          7.6660    -2.0280     2.4500 hc         1 04C       0.042367
     73 H34          7.3710    -2.2520     0.7110 hc         1 04C       0.042367
     74 H35          9.0160    -2.0180     1.3000 hc         1 04C       0.042367
     75 H36          8.5760     1.6860     2.1240 h1         1 04C       0.026700
     76 H37          8.6210     0.3170     3.2490 h1         1 04C       0.026700
     77 H38         10.7190     0.8780     2.4610 ho         1 04C       0.444000
     78 H39          5.7730     1.0400    -1.1610 hc         1 04C       0.055700
     79 H40          6.5140    -0.5430    -1.2940 hc         1 04C       0.055700
     80 H41          5.0410    -2.5830    -1.8700 ha         1 04C       0.109500
     81 H42          3.1480    -3.3540    -3.2870 ha         1 04C       0.115000
     82 H43          1.4690    -1.7160    -4.1320 ha         1 04C       0.110000
     83 H44          1.6950     0.7010    -3.5650 ha         1 04C       0.115000
     84 H45          3.5890     1.4810    -2.1590 ha         1 04C       0.109500
     85 H31          4.9480     0.1390     2.7940 ho         1 04C       0.449000
     86 H32          8.1210     0.0740     0.2530 hc         1 04C       0.058700
@<TRIPOS>BOND
     1     1     2 2   
     2     1     3 1   
     3     1    10 1   
     4     3     4 1   
     5     3    43 1   
     6     3    44 1   
     7     4     6 1   
     8     4     7 1   
     9     5     8 1   
    10     5     9 1   
    11     6     8 1   
    12     6    45 1   
    13     6    46 1   
    14     7     9 1   
    15     7    47 1   
    16     7    48 1   
    17     8    49 1   
    18     8    50 1   
    19     9    51 1   
    20     9    52 1   
    21    10    11 1   
    22    10    53 1   
    23    11    12 1   
    24    11    14 1   
    25    11    54 1   
    26    12    13 2   
    27    12    15 1   
    28    14    55 1   
    29    14    56 1   
    30    14    57 1   
    31    15    16 1   
    32    15    58 1   
    33    16    17 1   
    34    16    26 1   
    35    16    59 1   
    36    17    18 1   
    37    17    60 1   
    38    17    61 1   
    39    18    19 ar  
    40    18    25 ar  
    41    19    20 ar  
    42    19    62 1   
    43    20    21 ar  
    44    20    64 1   
    45    21    22 1   
    46    21    24 ar  
    47    22    23 1   
    48    23    66 1   
    49    23    67 1   
    50    23    68 1   
    51    24    25 ar  
    52    24    65 1   
    53    25    63 1   
    54    26    27 2   
    55    26    28 1   
    56    28    29 1   
    57    28    70 1   
    58    29    30 1   
    59    29    36 1   
    60    29    71 1   
    61    30    31 1   
    62    30    32 1   
    63    30    69 1   
    64    31    85 1   
    65    32    33 1   
    66    32    34 1   
    67    32    86 1   
    68    33    72 1   
    69    33    73 1   
    70    33    74 1   
    71    34    35 1   
    72    34    75 1   
    73    34    76 1   
    74    35    77 1   
    75    36    37 1   
    76    36    78 1   
    77    36    79 1   
    78    37    38 ar  
    79    37    42 ar  
    80    38    39 ar  
    81    38    80 1   
    82    39    40 ar  
    83    39    81 1   
    84    40    41 ar  
    85    40    82 1   
    86    41    42 ar  
    87    41    83 1   
    88    42    84 1   
@<TRIPOS>SUBSTRUCTURE
     1 04C         1 TEMP              0 ****  ****    0 ROOT
