@<TRIPOS>MOLECULE
04D
   33    32     1     0     0
SMALL
No Charge or Current Charge


@<TRIPOS>ATOM
      1 N5           0.4590     0.5560     1.6910 n8         1 04D      -0.997200
      2 O6          -0.7370    -1.3730    -1.3450 oh         1 04D      -0.656000
      3 O7          -3.7300     1.5450    -0.0240 oh         1 04D      -0.659000
      4 C20          0.4590     0.0480     0.2980 c3         1 04D       0.128500
      5 C21         -0.7590    -0.9170     0.0220 c3         1 04D       0.172300
      6 C24          4.3880    -0.5300    -0.0650 c3         1 04D      -0.089100
      7 C25          3.0670     1.5290    -0.7620 c3         1 04D      -0.089100
      8 C26          1.8350    -0.6170    -0.0020 c3         1 04D      -0.113400
      9 C27         -2.5060     0.9540    -0.4780 c3         1 04D       0.168600
     10 C28         -3.2800    -1.4020     0.2300 c3         1 04D      -0.077100
     11 C29         -2.1700    -0.3200     0.3470 c3         1 04D      -0.081700
     12 HN5          0.6810    -0.2160     2.3290 hn         1 04D       0.397000
     13 HO6         -0.7410    -0.5780    -1.9180 ho         1 04D       0.436000
     14 HO7         -3.8840     2.3430    -0.5760 ho         1 04D       0.438000
     15 H20          0.3500     0.9150    -0.3670 h1         1 04D       0.053700
     16 H21         -0.6230    -1.7840     0.6830 h1         1 04D       0.068700
     17 H23          3.1320     0.6470     1.1970 hc         1 04D       0.036700
     18 H24          5.2750     0.0920     0.1040 hc         1 04D       0.033867
     19 H24A         4.4370    -1.3800     0.6270 hc         1 04D       0.033867
     20 H24B         4.4310    -0.9190    -1.0900 hc         1 04D       0.033867
     21 H25          2.9770     1.2320    -1.8140 hc         1 04D       0.033867
     22 H25A         2.2260     2.1880    -0.5160 hc         1 04D       0.033867
     23 H25B         3.9870     2.1140    -0.6500 hc         1 04D       0.033867
     24 H26          1.9440    -1.4980     0.6420 hc         1 04D       0.051700
     25 H26A         1.8300    -0.9970    -1.0310 hc         1 04D       0.051700
     26 H27         -2.5870     0.6920    -1.5410 h1         1 04D       0.014700
     27 H27A        -1.6930     1.6840    -0.3770 h1         1 04D       0.014700
     28 H28         -3.0150    -2.2920     0.8130 hc         1 04D       0.037367
     29 H28A        -4.2360    -1.0280     0.6140 hc         1 04D       0.037367
     30 H28B        -3.4280    -1.7070    -0.8120 hc         1 04D       0.037367
     31 H29         -2.1500    -0.0170     1.4000 hc         1 04D       0.078700
     32 H2           1.2550     1.1930     1.8060 hn         1 04D       0.397000
     33 C23          3.0950     0.2870     0.1620 c3         1 04D      -0.061700
@<TRIPOS>BOND
     1     1     4 1   
     2     1    12 1   
     3     1    32 1   
     4     2     5 1   
     5     2    13 1   
     6     3     9 1   
     7     3    14 1   
     8     4     5 1   
     9     4     8 1   
    10     4    15 1   
    11     5    11 1   
    12     5    16 1   
    13     6    18 1   
    14     6    19 1   
    15     6    20 1   
    16     6    33 1   
    17     7    21 1   
    18     7    22 1   
    19     7    23 1   
    20     7    33 1   
    21     8    24 1   
    22     8    25 1   
    23     8    33 1   
    24     9    11 1   
    25     9    26 1   
    26     9    27 1   
    27    10    11 1   
    28    10    28 1   
    29    10    29 1   
    30    10    30 1   
    31    11    31 1   
    32    17    33 1   
@<TRIPOS>SUBSTRUCTURE
     1 04D         1 TEMP              0 ****  ****    0 ROOT
