@<TRIPOS>MOLECULE
04D
   33    32     1     0     0
SMALL
bcc


@<TRIPOS>ATOM
      1 N5           0.3230     0.6450     1.6060 n8         1 04D      -0.886800
      2 O6          -0.6770    -1.3360    -1.3450 oh         1 04D      -0.593800
      3 O7          -3.6990     1.4270     0.1160 oh         1 04D      -0.596800
      4 C20          0.4570     0.0990     0.2630 c3         1 04D       0.128500
      5 C21         -0.7110    -0.8670    -0.0100 c3         1 04D       0.149100
      6 C24          4.3020    -0.5550     0.0050 c3         1 04D      -0.089100
      7 C25          3.0480     1.4270    -0.8690 c3         1 04D      -0.089100
      8 C26          1.8000    -0.5970     0.0060 c3         1 04D      -0.113400
      9 C27         -2.4280     0.9830    -0.3150 c3         1 04D       0.145400
     10 C28         -3.1680    -1.3910     0.1350 c3         1 04D      -0.077100
     11 C29         -2.0980    -0.3300     0.3800 c3         1 04D      -0.081700
     12 HN5          0.5060    -0.0830     2.2880 hn         1 04D       0.341800
     13 HO6         -0.6800    -0.5790    -1.9390 ho         1 04D       0.397000
     14 HO7         -3.8990     2.2460    -0.3450 ho         1 04D       0.399000
     15 H20          0.3620     0.9420    -0.4320 h1         1 04D       0.053700
     16 H21         -0.5430    -1.7610     0.6060 h1         1 04D       0.068700
     17 H23          3.0480     0.7270     1.1530 hc         1 04D       0.036700
     18 H24          5.2020     0.0500     0.1270 hc         1 04D       0.033867
     19 H24A         4.3360    -1.3560     0.7460 hc         1 04D       0.033867
     20 H24B         4.3490    -1.0180    -0.9850 hc         1 04D       0.033867
     21 H25          3.0280     1.0320    -1.8880 hc         1 04D       0.033867
     22 H25A         2.1920     2.0940    -0.7580 hc         1 04D       0.033867
     23 H25B         3.9470     2.0370    -0.7690 hc         1 04D       0.033867
     24 H26          1.8820    -1.4380     0.7070 hc         1 04D       0.051700
     25 H26A         1.8050    -1.0330    -0.9970 hc         1 04D       0.051700
     26 H27         -2.4180     0.8430    -1.4060 h1         1 04D       0.014700
     27 H27A        -1.6590     1.7280    -0.0790 h1         1 04D       0.014700
     28 H28         -2.8860    -2.3380     0.5990 hc         1 04D       0.037367
     29 H28A        -4.1260    -1.0940     0.5600 hc         1 04D       0.037367
     30 H28B        -3.3190    -1.5770    -0.9290 hc         1 04D       0.037367
     31 H29         -2.0550    -0.1280     1.4540 hc         1 04D       0.078700
     32 H2           1.0280     1.3540     1.7660 hn         1 04D       0.341800
     33 C23          3.0400     0.2900     0.1480 c3         1 04D      -0.061700
@<TRIPOS>BOND
     1     1     4 1   
     2     1    12 1   
     3     1    32 1   
     4     2     5 1   
     5     2    13 1   
     6     3     9 1   
     7     3    14 1   
     8     4     5 1   
     9     4     8 1   
    10     4    15 1   
    11     5    11 1   
    12     5    16 1   
    13     6    18 1   
    14     6    19 1   
    15     6    20 1   
    16     6    33 1   
    17     7    21 1   
    18     7    22 1   
    19     7    23 1   
    20     7    33 1   
    21     8    24 1   
    22     8    25 1   
    23     8    33 1   
    24     9    11 1   
    25     9    26 1   
    26     9    27 1   
    27    10    11 1   
    28    10    28 1   
    29    10    29 1   
    30    10    30 1   
    31    11    31 1   
    32    17    33 1   
@<TRIPOS>SUBSTRUCTURE
     1 04D         1 TEMP              0 ****  ****    0 ROOT
