@<TRIPOS>MOLECULE
04E
    7     6     1     0     0
SMALL
No Charge or Current Charge


@<TRIPOS>ATOM
      1 C1           2.1720    -0.0050     0.0280 c          1 04E       0.726000
      2 O1           2.2360    -0.9860    -0.7020 o          1 04E      -0.710500
      3 CH3          0.9510     0.9340    -0.1130 c3         1 04E       0.025600
      4 H1           1.2450     1.9540     0.1640 h1         1 04E       0.041700
      5 H2           0.6100     0.9310    -1.1560 h1         1 04E       0.041700
      6 I1          -0.8860     0.4590     1.1370 i          1 04E      -0.414000
      7 OXT          3.0010     0.2490     0.8920 o          1 04E      -0.710500
@<TRIPOS>BOND
     1     1     2 1   
     2     1     3 1   
     3     1     7 1   
     4     3     4 1   
     5     3     5 1   
     6     3     6 1   
@<TRIPOS>SUBSTRUCTURE
     1 04E         1 TEMP              0 ****  ****    0 ROOT
