@<TRIPOS>MOLECULE
04E
    7     6     1     0     0
SMALL
abcg2


@<TRIPOS>ATOM
      1 C1           2.1350    -0.0570     0.0430 c          1 04E       0.726000
      2 O1           1.8730    -1.2640     0.0390 o          1 04E      -0.710500
      3 CH3          0.9960     0.9830     0.0310 c3         1 04E       0.025600
      4 H1           1.0390     1.6230     0.9110 h1         1 04E       0.041700
      5 H2           1.0500     1.6160    -0.8530 h1         1 04E       0.041700
      6 I1          -1.0130     0.1360     0.0240 i          1 04E      -0.414000
      7 OXT          3.2490     0.4980     0.0560 o          1 04E      -0.710500
@<TRIPOS>BOND
     1     1     2 1   
     2     1     3 1   
     3     1     7 1   
     4     3     4 1   
     5     3     5 1   
     6     3     6 1   
@<TRIPOS>SUBSTRUCTURE
     1 04E         1 TEMP              0 ****  ****    0 ROOT
