@<TRIPOS>MOLECULE
04F
   28    28     1     0     0
SMALL
No Charge or Current Charge


@<TRIPOS>ATOM
      1 N19         -0.6130    -1.8060     1.6220 n8         1 04F      -0.958200
      2 C20         -0.1450    -0.8080     0.6210 c3         1 04F       0.158500
      3 C21         -1.1710    -0.7420    -0.5500 c3         1 04F      -0.083700
      4 O22         -1.7450    -2.0770    -0.6920 oh         1 04F      -0.661000
      5 C24          1.2780    -1.2210     0.1500 c3         1 04F      -0.087400
      6 C25          2.0610    -0.1540    -0.6750 c5         1 04F      -0.137700
      7 C26          3.4190    -0.6660    -1.2320 c5         1 04F      -0.093400
      8 C27          4.3770    -0.4020    -0.0380 c5         1 04F       0.103000
      9 N28          3.8100     0.8350     0.4950 ns         1 04F      -0.528900
     10 C29          2.4830     1.0230     0.2140 c          1 04F       0.557000
     11 O30          1.8820     2.0510     0.4750 o          1 04F      -0.529000
     12 H15          0.1060    -1.9140     2.3450 hn         1 04F       0.374000
     13 H16         -0.0670     0.1750     1.1130 h1         1 04F       0.091700
     14 H17         -0.6810    -0.4490    -1.4830 h2         1 04F       0.095700
     15 H19         -1.5230    -2.4690     0.1940 ho         1 04F       0.447000
     16 H20          1.8750    -1.4930     1.0310 hc         1 04F       0.024200
     17 H21          1.1910    -2.1400    -0.4430 hc         1 04F       0.024200
     18 H22          1.3940     0.2170    -1.4600 hc         1 04F       0.103700
     19 H23          3.4000    -1.7180    -1.5390 hc         1 04F       0.048700
     20 H24          3.7250    -0.0780    -2.1060 hc         1 04F       0.048700
     21 H25          4.3320    -1.2110     0.7030 h1         1 04F       0.030200
     22 H26          5.4190    -0.2860    -0.3640 h1         1 04F       0.030200
     23 H27          4.3100     1.5460     1.0150 hn         1 04F       0.315500
     24 S1          -2.4270     0.6230    -0.2910 s6         1 04F       1.300600
     25 O1          -3.0760     0.2950     0.9900 o          1 04F      -0.683200
     26 O2          -1.6200     1.8520    -0.2590 o          1 04F      -0.683200
     27 O3          -3.3190     0.5280    -1.4600 o          1 04F      -0.683200
     28 H2          -1.4100    -1.4040     2.1320 hn         1 04F       0.374000
@<TRIPOS>BOND
     1     1     2 1   
     2     1    12 1   
     3     1    28 1   
     4     2     3 1   
     5     2     5 1   
     6     2    13 1   
     7     3     4 1   
     8     3    14 1   
     9     3    24 1   
    10     4    15 1   
    11     5     6 1   
    12     5    16 1   
    13     5    17 1   
    14     6     7 1   
    15     6    10 1   
    16     6    18 1   
    17     7     8 1   
    18     7    19 1   
    19     7    20 1   
    20     8     9 1   
    21     8    21 1   
    22     8    22 1   
    23     9    10 1   
    24     9    23 1   
    25    10    11 2   
    26    24    25 1   
    27    24    26 1   
    28    24    27 1   
@<TRIPOS>SUBSTRUCTURE
     1 04F         1 TEMP              0 ****  ****    0 ROOT
