@<TRIPOS>MOLECULE
04F
   28    28     1     0     0
SMALL
abcg2


@<TRIPOS>ATOM
      1 N19         -0.7130    -1.3970     1.7900 n8         1 04F      -0.958200
      2 C20         -0.0620    -0.5770     0.7780 c3         1 04F       0.158500
      3 C21         -0.9680    -0.3650    -0.4300 c3         1 04F      -0.083700
      4 O22         -1.1950    -1.5270    -1.1770 oh         1 04F      -0.661000
      5 C24          1.2950    -1.1640     0.3590 c3         1 04F      -0.087400
      6 C25          2.0850    -0.4440    -0.7420 c5         1 04F      -0.137700
      7 C26          3.4710    -1.0630    -0.9440 c5         1 04F      -0.093400
      8 C27          4.3840    -0.2460    -0.0240 c5         1 04F       0.103000
      9 N28          3.6960     1.0260     0.0350 ns         1 04F      -0.528900
     10 C29          2.4080     0.9890    -0.3430 c          1 04F       0.557000
     11 O30          1.6350     1.9360    -0.3430 o          1 04F      -0.529000
     12 H15         -0.8070    -2.3490     1.4520 hn         1 04F       0.374000
     13 H16          0.0990     0.4090     1.2170 h1         1 04F       0.091700
     14 H17         -0.4920     0.3620    -1.0910 h2         1 04F       0.095700
     15 H19         -1.8470    -2.0640    -0.7070 ho         1 04F       0.447000
     16 H20          1.9150    -1.2270     1.2600 hc         1 04F       0.024200
     17 H21          1.1410    -2.1950     0.0280 hc         1 04F       0.024200
     18 H22          1.5090    -0.4430    -1.6690 hc         1 04F       0.103700
     19 H23          3.5020    -2.1270    -0.7140 hc         1 04F       0.048700
     20 H24          3.7890    -0.9380    -1.9800 hc         1 04F       0.048700
     21 H25          4.4740    -0.6940     0.9700 h1         1 04F       0.030200
     22 H26          5.3890    -0.1300    -0.4280 h1         1 04F       0.030200
     23 H27          4.1100     1.8500     0.4420 hn         1 04F       0.315500
     24 S1          -2.5940     0.3720    -0.0100 s6         1 04F       1.300600
     25 O1          -3.4430    -0.7770     0.3750 o          1 04F      -0.683200
     26 O2          -2.3650     1.3440     1.0740 o          1 04F      -0.683200
     27 O3          -3.0500     1.0080    -1.2640 o          1 04F      -0.683200
     28 H2          -0.1010    -1.4650     2.5940 hn         1 04F       0.374000
@<TRIPOS>BOND
     1     1     2 1   
     2     1    12 1   
     3     1    28 1   
     4     2     3 1   
     5     2     5 1   
     6     2    13 1   
     7     3     4 1   
     8     3    14 1   
     9     3    24 1   
    10     4    15 1   
    11     5     6 1   
    12     5    16 1   
    13     5    17 1   
    14     6     7 1   
    15     6    10 1   
    16     6    18 1   
    17     7     8 1   
    18     7    19 1   
    19     7    20 1   
    20     8     9 1   
    21     8    21 1   
    22     8    22 1   
    23     9    10 1   
    24     9    23 1   
    25    10    11 2   
    26    24    25 1   
    27    24    26 1   
    28    24    27 1   
@<TRIPOS>SUBSTRUCTURE
     1 04F         1 TEMP              0 ****  ****    0 ROOT
