@<TRIPOS>MOLECULE
04H
   27    27     1     0     0
SMALL
No Charge or Current Charge


@<TRIPOS>ATOM
      1 N19         -2.9950     1.7260    -0.4700 n8         1 04H      -0.993200
      2 C23         -2.8250     0.3360    -0.0040 c3         1 04H       0.153800
      3 C26         -1.4330    -0.2740    -0.3300 c6         1 04H      -0.072700
      4 C28         -0.2780     0.5120     0.3570 c6         1 04H       0.226800
      5 C29         -1.3770    -1.7700     0.0700 c6         1 04H      -0.074400
      6 N30          1.0640    -0.0880     0.0860 nh         1 04H      -0.762600
      7 C31          0.0180    -2.3520    -0.2450 c6         1 04H      -0.083400
      8 C32          1.1350    -1.5310     0.4420 c6         1 04H       0.218800
      9 C33          2.1550     0.6620     0.3190 c2         1 04H       0.798100
     10 N34          3.0010     0.6160    -0.6840 nv         1 04H      -1.064200
     11 N35          2.2840     1.4070     1.3140 n2         1 04H      -0.889100
     12 H19         -2.9570     1.7410    -1.4960 hn         1 04H       0.392500
     13 H231        -2.9830     0.3110     1.0840 h1         1 04H       0.027200
     14 H232        -3.6040    -0.2800    -0.4750 h1         1 04H       0.027200
     15 H26         -1.3020    -0.2020    -1.4180 hc         1 04H       0.053700
     16 H281        -0.2970     1.5480    -0.0140 h1         1 04H       0.064700
     17 H282        -0.4590     0.5590     1.4420 h1         1 04H       0.064700
     18 H291        -1.5930    -1.8830     1.1410 hc         1 04H       0.039700
     19 H292        -2.1470    -2.3380    -0.4710 hc         1 04H       0.039700
     20 H311         0.0720    -3.3980     0.0850 hc         1 04H       0.045200
     21 H312         0.1820    -2.3570    -1.3310 hc         1 04H       0.045200
     22 H321         2.1050    -1.9480     0.1340 h1         1 04H       0.040200
     23 H322         1.0660    -1.6510     1.5340 h1         1 04H       0.040200
     24 H341         2.5680     0.1000    -1.4370 hn         1 04H       0.449000
     25 H342         3.3320     1.5300    -0.9600 hn         1 04H       0.449000
     26 H35          3.1940     1.8670     1.2230 hn         1 04H       0.373400
     27 H2          -3.9530     2.0340    -0.2620 hn         1 04H       0.392500
@<TRIPOS>BOND
     1     1     2 1   
     2     1    12 1   
     3     1    27 1   
     4     2     3 1   
     5     2    13 1   
     6     2    14 1   
     7     3     4 1   
     8     3     5 1   
     9     3    15 1   
    10     4     6 1   
    11     4    16 1   
    12     4    17 1   
    13     5     7 1   
    14     5    18 1   
    15     5    19 1   
    16     6     8 1   
    17     6     9 1   
    18     7     8 1   
    19     7    20 1   
    20     7    21 1   
    21     8    22 1   
    22     8    23 1   
    23     9    10 1   
    24     9    11 2   
    25    10    24 1   
    26    10    25 1   
    27    11    26 1   
@<TRIPOS>SUBSTRUCTURE
     1 04H         1 TEMP              0 ****  ****    0 ROOT
