@<TRIPOS>MOLECULE
04H
   27    27     1     0     0
SMALL
bcc


@<TRIPOS>ATOM
      1 N19         -2.9870     1.7010    -0.1990 n8         1 04H      -0.882800
      2 C23         -2.8430     0.2830     0.0980 c3         1 04H       0.153800
      3 C26         -1.4740    -0.2480    -0.3090 c6         1 04H      -0.072700
      4 C28         -0.3570     0.4840     0.4290 c6         1 04H       0.226800
      5 C29         -1.3810    -1.7510    -0.0660 c6         1 04H      -0.074400
      6 N30          0.9440    -0.0530     0.0790 nh         1 04H      -0.762600
      7 C31          0.0130    -2.2650    -0.3940 c6         1 04H      -0.083400
      8 C32          1.0720    -1.4760     0.3590 c6         1 04H       0.218800
      9 C33          2.0290     0.7920     0.1110 c2         1 04H       0.798100
     10 N34          3.2370     0.2030    -0.2120 nv         1 04H      -0.953800
     11 N35          1.8890     2.0250     0.4420 n2         1 04H      -0.889100
     12 H19         -3.0000     1.8310    -1.2030 hn         1 04H       0.337300
     13 H231        -2.9660     0.1460     1.1770 h1         1 04H       0.027200
     14 H232        -3.6120    -0.3410    -0.3800 h1         1 04H       0.027200
     15 H26         -1.3380    -0.0690    -1.3840 hc         1 04H       0.053700
     16 H281        -0.3810     1.5420     0.1900 h1         1 04H       0.064700
     17 H282        -0.5260     0.4000     1.5150 h1         1 04H       0.064700
     18 H291        -1.6070    -1.9610     0.9860 hc         1 04H       0.039700
     19 H292        -2.1340    -2.2780    -0.6580 hc         1 04H       0.039700
     20 H311         0.1060    -3.3220    -0.1350 hc         1 04H       0.045200
     21 H312         0.1980    -2.1810    -1.4690 hc         1 04H       0.045200
     22 H321         2.0610    -1.8370     0.0890 h1         1 04H       0.040200
     23 H322         0.9590    -1.6540     1.4380 h1         1 04H       0.040200
     24 H341         3.2180    -0.5050    -0.9290 hn         1 04H       0.393800
     25 H342         3.9860     0.8590    -0.3660 hn         1 04H       0.393800
     26 H35          2.7560     2.5290     0.2960 hn         1 04H       0.373400
     27 H2          -3.8880     2.0240     0.1290 hn         1 04H       0.337300
@<TRIPOS>BOND
     1     1     2 1   
     2     1    12 1   
     3     1    27 1   
     4     2     3 1   
     5     2    13 1   
     6     2    14 1   
     7     3     4 1   
     8     3     5 1   
     9     3    15 1   
    10     4     6 1   
    11     4    16 1   
    12     4    17 1   
    13     5     7 1   
    14     5    18 1   
    15     5    19 1   
    16     6     8 1   
    17     6     9 1   
    18     7     8 1   
    19     7    20 1   
    20     7    21 1   
    21     8    22 1   
    22     8    23 1   
    23     9    10 1   
    24     9    11 2   
    25    10    24 1   
    26    10    25 1   
    27    11    26 1   
@<TRIPOS>SUBSTRUCTURE
     1 04H         1 TEMP              0 ****  ****    0 ROOT
