@<TRIPOS>MOLECULE
04J
   50    52     1     0     0
SMALL
No Charge or Current Charge


@<TRIPOS>ATOM
      1 C           19.4730   -37.2230     3.9700 c          1 04J       0.575700
      2 N           19.9700   -35.9530     3.7630 ns         1 04J      -0.450900
      3 O           20.2090   -38.1510     4.2800 o          1 04J      -0.629100
      4 N1          14.1140   -36.4110    -2.7910 nb         1 04J      -0.272000
      5 O1          22.0150   -33.7450     5.2680 o          1 04J      -0.742500
      6 C2          14.0470   -35.1490    -3.2330 ca         1 04J       0.441900
      7 O2          20.9710   -33.2380     3.4600 o          1 04J      -0.742500
      8 N3          13.7050   -34.0590    -2.5520 nb         1 04J      -0.352000
      9 C4          13.3930   -34.2650    -1.2710 ca         1 04J       0.462900
     10 N5          13.1140   -35.7350     0.6640 nb         1 04J      -0.609000
     11 C6          13.1820   -37.0010     1.1470 ca         1 04J       0.224300
     12 C7          13.5510   -38.0750     0.3140 ca         1 04J       0.100900
     13 N8          13.8600   -37.8980    -0.9850 nb         1 04J      -0.110000
     14 C9          12.8330   -37.2260     2.6290 c3         1 04J       0.190500
     15 CA          21.4010   -35.5670     3.8360 c3         1 04J      -0.026300
     16 CB          22.1450   -35.9330     2.5220 c3         1 04J      -0.037400
     17 CD          24.3740   -36.7670     3.4550 c          1 04J       0.714000
     18 CG          23.6840   -35.7300     2.5450 c3         1 04J      -0.184400
     19 CT          21.5130   -34.0530     4.1960 c          1 04J       0.705000
     20 N10         13.8190   -38.0670     3.3630 nu         1 04J      -0.982200
     21 C11         17.9770   -37.4060     3.8020 ca         1 04J      -0.143600
     22 C12         17.4090   -38.6830     4.0130 ca         1 04J      -0.042000
     23 C13         16.0260   -38.8870     3.8650 ca         1 04J      -0.197000
     24 C14         15.1850   -37.8270     3.5030 ca         1 04J       0.285000
     25 C15         15.7360   -36.5530     3.2940 ca         1 04J      -0.197000
     26 C16         17.1190   -36.3390     3.4390 ca         1 04J      -0.042000
     27 C4A         13.4250   -35.5500    -0.6540 ca         1 04J       0.038000
     28 C8A         13.8080   -36.6460    -1.4950 ca         1 04J       0.114000
     29 OE1         24.6800   -37.8460     2.9700 o          1 04J      -0.761500
     30 OE2         24.5770   -36.4740     4.6230 o          1 04J      -0.761500
     31 HN          19.3040   -35.2310     3.5190 hn         1 04J       0.320500
     32 H7          13.6010   -39.0940     0.6910 h4         1 04J       0.028100
     33 H9          12.7440   -36.2500     3.1260 h1         1 04J       0.055700
     34 H9A         11.8410   -37.6960     2.6770 h1         1 04J       0.055700
     35 HA          21.8590   -36.1220     4.6640 h1         1 04J       0.094700
     36 HB          21.9390   -36.9800     2.2680 hc         1 04J       0.009700
     37 HBA         21.7260   -35.3340     1.7030 hc         1 04J       0.009700
     38 HG          24.0010   -35.8810     1.5060 hc         1 04J       0.017700
     39 HGA         23.8620   -34.7100     2.9070 hc         1 04J       0.017700
     40 HN10        13.5190   -39.0140     3.6060 hn         1 04J       0.464000
     41 H12         18.0390   -39.5240     4.2930 ha         1 04J       0.136000
     42 H13         15.6120   -39.8780     4.0320 ha         1 04J       0.097500
     43 H15         15.1000   -35.7180     3.0190 ha         1 04J       0.097500
     44 H16         17.5020   -35.3370     3.2650 ha         1 04J       0.136000
     45 HNA2        14.3900   -35.7650    -5.1420 hn         1 04J       0.501000
     46 HNAA        14.0940   -34.0690    -4.9590 hn         1 04J       0.501000
     47 HNA4        13.3450   -32.2400    -0.9840 hn         1 04J       0.510500
     48 HNAB        13.0080   -33.1990     0.4170 hn         1 04J       0.510500
     49 NA2         14.3600   -34.9530    -4.5300 nv         1 04J      -1.069900
     50 NA4         13.0460   -33.1300    -0.5970 nv         1 04J      -1.061900
@<TRIPOS>BOND
     1     1     2 1   
     2     1     3 2   
     3     1    21 1   
     4     2    15 1   
     5     2    31 1   
     6     4     6 ar  
     7     4    28 ar  
     8     5    19 1   
     9     6     8 ar  
    10     6    49 1   
    11     7    19 1   
    12     8     9 ar  
    13     9    27 ar  
    14     9    50 1   
    15    10    11 ar  
    16    10    27 ar  
    17    11    12 ar  
    18    11    14 1   
    19    12    13 ar  
    20    12    32 1   
    21    13    28 ar  
    22    14    20 1   
    23    14    33 1   
    24    14    34 1   
    25    15    16 1   
    26    15    19 1   
    27    15    35 1   
    28    16    18 1   
    29    16    36 1   
    30    16    37 1   
    31    17    18 1   
    32    17    29 1   
    33    17    30 1   
    34    18    38 1   
    35    18    39 1   
    36    20    24 1   
    37    20    40 1   
    38    21    22 ar  
    39    21    26 ar  
    40    22    23 ar  
    41    22    41 1   
    42    23    24 ar  
    43    23    42 1   
    44    24    25 ar  
    45    25    26 ar  
    46    25    43 1   
    47    26    44 1   
    48    27    28 ar  
    49    45    49 1   
    50    46    49 1   
    51    47    50 1   
    52    48    50 1   
@<TRIPOS>SUBSTRUCTURE
     1 04J         1 TEMP              0 ****  ****    0 ROOT
