@<TRIPOS>MOLECULE
04J
   50    52     1     0     0
SMALL
abcg2


@<TRIPOS>ATOM
      1 C           19.3430   -37.1080     4.0460 c          1 04J       0.575700
      2 N           19.8620   -36.0270     3.4410 ns         1 04J      -0.450900
      3 O           20.0270   -37.8690     4.7480 o          1 04J      -0.629100
      4 N1          14.3860   -36.1730    -2.6570 nb         1 04J      -0.272000
      5 O1          22.1650   -33.4110     3.9420 o          1 04J      -0.742500
      6 C2          14.2360   -34.8990    -3.0190 ca         1 04J       0.441900
      7 O2          20.4310   -33.5880     2.5260 o          1 04J      -0.742500
      8 N3          13.7450   -33.8810    -2.2620 nb         1 04J      -0.352000
      9 C4          13.3720   -34.1600    -1.0260 ca         1 04J       0.462900
     10 N5          13.1290   -35.7930     0.7450 nb         1 04J      -0.609000
     11 C6          13.2760   -37.0400     1.1530 ca         1 04J       0.224300
     12 C7          13.7910   -38.0150     0.2710 ca         1 04J       0.100900
     13 N8          14.1500   -37.7560    -0.9690 nb         1 04J      -0.110000
     14 C9          12.8900   -37.3870     2.5760 c3         1 04J       0.190500
     15 CA          21.2430   -35.5860     3.5590 c3         1 04J      -0.026300
     16 CB          22.1300   -36.3270     2.5390 c3         1 04J      -0.037400
     17 CD          24.3490   -36.4320     3.8960 c          1 04J       0.714000
     18 CG          23.6160   -35.9950     2.6110 c3         1 04J      -0.184400
     19 CT          21.2800   -34.0550     3.3300 c          1 04J       0.705000
     20 N10         13.8250   -38.2660     3.2460 nu         1 04J      -0.982200
     21 C11         17.8880   -37.3580     3.8290 ca         1 04J      -0.143600
     22 C12         17.3900   -38.6510     4.0330 ca         1 04J      -0.042000
     23 C13         16.0580   -38.9490     3.8280 ca         1 04J      -0.197000
     24 C14         15.1510   -37.9520     3.4220 ca         1 04J       0.285000
     25 C15         15.6420   -36.6480     3.2360 ca         1 04J      -0.197000
     26 C16         16.9850   -36.3690     3.4330 ca         1 04J      -0.042000
     27 C4A         13.4890   -35.5070    -0.5120 ca         1 04J       0.038000
     28 C8A         14.0130   -36.4750    -1.3980 ca         1 04J       0.114000
     29 OE1         23.9270   -37.4530     4.5000 o          1 04J      -0.761500
     30 OE2         25.3550   -35.7500     4.2270 o          1 04J      -0.761500
     31 HN          19.2980   -35.4430     2.8420 hn         1 04J       0.320500
     32 H7          13.9090   -39.0370     0.6160 h4         1 04J       0.028100
     33 H9          12.7700   -36.4520     3.1280 h1         1 04J       0.055700
     34 H9A         11.9200   -37.8860     2.5820 h1         1 04J       0.055700
     35 HA          21.5940   -35.8060     4.5660 h1         1 04J       0.094700
     36 HB          21.9880   -37.3960     2.6990 hc         1 04J       0.009700
     37 HBA         21.7500   -36.0950     1.5390 hc         1 04J       0.009700
     38 HG          24.1250   -36.5010     1.7820 hc         1 04J       0.017700
     39 HGA         23.7820   -34.9270     2.4680 hc         1 04J       0.017700
     40 HN10        13.5970   -39.2470     3.2420 hn         1 04J       0.464000
     41 H12         18.0730   -39.4290     4.3460 ha         1 04J       0.136000
     42 H13         15.6980   -39.9600     3.9740 ha         1 04J       0.097500
     43 H15         14.9780   -35.8490     2.9400 ha         1 04J       0.097500
     44 H16         17.3150   -35.3470     3.2910 ha         1 04J       0.136000
     45 HNA2        14.9010   -35.2720    -4.9120 hn         1 04J       0.501000
     46 HNAA        14.4270   -33.6310    -4.6070 hn         1 04J       0.501000
     47 HNA4        12.8160   -32.2520    -0.5740 hn         1 04J       0.510500
     48 HNAB        12.6200   -33.4160     0.7080 hn         1 04J       0.510500
     49 NA2         14.6220   -34.5550    -4.2640 nv         1 04J      -1.069900
     50 NA4         12.8800   -33.2000    -0.2400 nv         1 04J      -1.061900
@<TRIPOS>BOND
     1     1     2 1   
     2     1     3 2   
     3     1    21 1   
     4     2    15 1   
     5     2    31 1   
     6     4     6 ar  
     7     4    28 ar  
     8     5    19 1   
     9     6     8 ar  
    10     6    49 1   
    11     7    19 1   
    12     8     9 ar  
    13     9    27 ar  
    14     9    50 1   
    15    10    11 ar  
    16    10    27 ar  
    17    11    12 ar  
    18    11    14 1   
    19    12    13 ar  
    20    12    32 1   
    21    13    28 ar  
    22    14    20 1   
    23    14    33 1   
    24    14    34 1   
    25    15    16 1   
    26    15    19 1   
    27    15    35 1   
    28    16    18 1   
    29    16    36 1   
    30    16    37 1   
    31    17    18 1   
    32    17    29 1   
    33    17    30 1   
    34    18    38 1   
    35    18    39 1   
    36    20    24 1   
    37    20    40 1   
    38    21    22 ar  
    39    21    26 ar  
    40    22    23 ar  
    41    22    41 1   
    42    23    24 ar  
    43    23    42 1   
    44    24    25 ar  
    45    25    26 ar  
    46    25    43 1   
    47    26    44 1   
    48    27    28 ar  
    49    45    49 1   
    50    46    49 1   
    51    47    50 1   
    52    48    50 1   
@<TRIPOS>SUBSTRUCTURE
     1 04J         1 TEMP              0 ****  ****    0 ROOT
