@<TRIPOS>MOLECULE
04K
   63    66     1     0     0
SMALL
No Charge or Current Charge


@<TRIPOS>ATOM
      1 N1           0.3050    -0.1300    -1.2760 nb         1 04K      -0.245000
      2 C2           0.2720    -0.9730    -0.2290 ca         1 04K       0.432900
      3 N3           1.3220    -1.5530     0.3690 nb         1 04K      -0.315000
      4 C4           1.5220     0.1780    -1.7580 ca         1 04K       0.203900
      5 C5           2.6890    -0.3660    -1.1960 ca         1 04K      -0.294800
      6 C6           2.5440    -1.2450    -0.1120 ca         1 04K       0.314900
      7 N7           3.7000    -1.8380     0.5070 n          1 04K      -0.363300
      8 C8           5.0180    -1.5730     0.0510 c          1 04K       0.549200
      9 C9           5.1140    -0.6260    -1.1030 cc         1 04K      -0.038100
     10 C10          4.0200    -0.0480    -1.7000 cd         1 04K      -0.060200
     11 O11          6.3080    -0.2110    -1.6510 os         1 04K      -0.225200
     12 C12          7.0810     0.4790    -0.7270 ca         1 04K       0.122100
     13 N13         -0.9570    -1.3530     0.2900 nu         1 04K      -0.914900
     14 C14         -2.2840    -0.9500     0.0790 ca         1 04K       0.252000
     15 C15         -3.3190    -1.8610     0.3620 ca         1 04K      -0.089000
     16 C16         -4.6660    -1.4960     0.1760 ca         1 04K      -0.156500
     17 C17         -4.9980    -0.2130    -0.2850 ca         1 04K       0.138100
     18 C18         -3.9680     0.7130    -0.5560 ca         1 04K      -0.156500
     19 C19         -2.6210     0.3440    -0.3700 ca         1 04K      -0.089000
     20 O20         -6.3340     0.0880    -0.4470 os         1 04K      -0.327100
     21 C21         -6.7810     1.3820    -0.9030 c3         1 04K       0.165600
     22 C22         -8.3350     1.3890    -0.9730 c3         1 04K       0.169800
     23 N23         -9.0820     1.0660     0.2900 n3         1 04K      -0.722600
     24 C24         -8.7340     1.9870     1.4100 c3         1 04K       0.174300
     25 C25         -9.2870     1.5820     2.7920 c3         1 04K      -0.089600
     26 C26        -10.5520     0.9460     0.0740 c3         1 04K       0.174300
     27 C27        -10.9840    -0.1470    -0.9260 c3         1 04K      -0.089600
     28 O28          6.0020    -2.0910     0.5670 o          1 04K      -0.511000
     29 C29          3.5020    -2.7650     1.6560 c3         1 04K       0.078300
     30 C30          8.4770     0.4540    -0.9050 ca         1 04K      -0.124000
     31 C31          9.3230     1.1470    -0.0190 ca         1 04K      -0.120500
     32 C32          8.7710     1.8800     1.0430 ca         1 04K       0.142000
     33 C33          7.3800     1.9330     1.2200 ca         1 04K      -0.120500
     34 C34          6.5310     1.2410     0.3360 ca         1 04K      -0.124000
     35 F35          9.5830     2.5470     1.8920 f          1 04K      -0.181000
     36 H4           1.5580     0.8640    -2.6030 h4         1 04K       0.028100
     37 H10          4.1540     0.6410    -2.5320 ha         1 04K       0.205000
     38 HN13        -0.8630    -2.1530     0.9150 hn         1 04K       0.513000
     39 H15         -3.0820    -2.8590     0.7180 ha         1 04K       0.124500
     40 H16         -5.4560    -2.2120     0.3910 ha         1 04K       0.125000
     41 H18         -4.1890     1.7180    -0.9030 ha         1 04K       0.125000
     42 H19         -1.8480     1.0800    -0.5600 ha         1 04K       0.124500
     43 H21         -6.4320     2.1760    -0.2310 h1         1 04K       0.034200
     44 H21A        -6.3840     1.5910    -1.9050 h1         1 04K       0.034200
     45 H22         -8.6460     2.3770    -1.3380 h1         1 04K       0.043700
     46 H22A        -8.5990     0.6710    -1.7590 h1         1 04K       0.043700
     47 H24         -7.6450     2.0350     1.5240 h1         1 04K       0.025950
     48 H24A        -9.0760     3.0050     1.1790 h1         1 04K       0.025950
     49 H25        -10.3740     1.7100     2.8450 hc         1 04K       0.038200
     50 H25A        -9.0410     0.5370     3.0160 hc         1 04K       0.038200
     51 H25B        -8.8420     2.2120     3.5710 hc         1 04K       0.038200
     52 H26        -11.0470     0.6990     1.0210 h1         1 04K       0.025950
     53 H26A       -10.9640     1.9080    -0.2590 h1         1 04K       0.025950
     54 H27        -10.7180     0.1200    -1.9550 hc         1 04K       0.038200
     55 H27A       -10.5170    -1.1070    -0.6760 hc         1 04K       0.038200
     56 H27B       -12.0720    -0.2780    -0.8900 hc         1 04K       0.038200
     57 H29          4.4530    -3.1030     2.0840 h1         1 04K       0.061700
     58 H29A         2.9350    -2.2580     2.4470 h1         1 04K       0.061700
     59 H29B         2.9390    -3.6470     1.3240 h1         1 04K       0.061700
     60 H30          8.9030    -0.1120    -1.7290 ha         1 04K       0.128500
     61 H31         10.4010     1.1180    -0.1550 ha         1 04K       0.131500
     62 H33          6.9610     2.5150     2.0380 ha         1 04K       0.131500
     63 H34          5.4560     1.3180     0.4810 ha         1 04K       0.128500
@<TRIPOS>BOND
     1     1     2 ar  
     2     1     4 ar  
     3     2     3 ar  
     4     2    13 1   
     5     3     6 ar  
     6     4     5 ar  
     7     4    36 1   
     8     5     6 ar  
     9     5    10 1   
    10     6     7 1   
    11     7     8 1   
    12     7    29 1   
    13     8     9 1   
    14     8    28 2   
    15     9    10 2   
    16     9    11 1   
    17    10    37 1   
    18    11    12 1   
    19    12    30 ar  
    20    12    34 ar  
    21    13    14 1   
    22    13    38 1   
    23    14    15 ar  
    24    14    19 ar  
    25    15    16 ar  
    26    15    39 1   
    27    16    17 ar  
    28    16    40 1   
    29    17    18 ar  
    30    17    20 1   
    31    18    19 ar  
    32    18    41 1   
    33    19    42 1   
    34    20    21 1   
    35    21    22 1   
    36    21    43 1   
    37    21    44 1   
    38    22    23 1   
    39    22    45 1   
    40    22    46 1   
    41    23    24 1   
    42    23    26 1   
    43    24    25 1   
    44    24    47 1   
    45    24    48 1   
    46    25    49 1   
    47    25    50 1   
    48    25    51 1   
    49    26    27 1   
    50    26    52 1   
    51    26    53 1   
    52    27    54 1   
    53    27    55 1   
    54    27    56 1   
    55    29    57 1   
    56    29    58 1   
    57    29    59 1   
    58    30    31 ar  
    59    30    60 1   
    60    31    32 ar  
    61    31    61 1   
    62    32    33 ar  
    63    32    35 1   
    64    33    34 ar  
    65    33    62 1   
    66    34    63 1   
@<TRIPOS>SUBSTRUCTURE
     1 04K         1 TEMP              0 ****  ****    0 ROOT
