@<TRIPOS>MOLECULE
04K
   63    66     1     0     0
SMALL
bcc


@<TRIPOS>ATOM
      1 N1           0.1170     0.0460    -0.9820 nb         1 04K      -0.771000
      2 C2           0.1130    -0.9550    -0.0910 ca         1 04K       0.958900
      3 N3           1.1880    -1.6000     0.3600 nb         1 04K      -0.841000
      4 C4           1.2940     0.4120    -1.4350 ca         1 04K       0.532200
      5 C5           2.4910    -0.1770    -1.0380 ca         1 04K      -0.425400
      6 C6           2.3640    -1.2210    -0.1020 ca         1 04K       0.643200
      7 N7           3.4890    -1.8610     0.3460 n          1 04K      -0.430300
      8 C8           4.7650    -1.5130    -0.0710 c          1 04K       0.691700
      9 C9           4.8620    -0.4220    -1.0370 cc         1 04K      -0.038100
     10 C10          3.7750     0.2200    -1.4980 cd         1 04K      -0.010200
     11 O11          6.1100    -0.1280    -1.4900 os         1 04K      -0.225200
     12 C12          6.9950     0.4650    -0.6320 ca         1 04K       0.122100
     13 N13         -1.0640    -1.3800     0.4140 nu         1 04K      -0.721300
     14 C14         -2.3630    -0.9190     0.1540 ca         1 04K       0.113600
     15 C15         -3.4050    -1.8470     0.2100 ca         1 04K      -0.107000
     16 C16         -4.7150    -1.4600     0.0160 ca         1 04K      -0.174500
     17 C17         -5.0270    -0.1270    -0.2570 ca         1 04K       0.138100
     18 C18         -3.9930     0.8040    -0.3100 ca         1 04K      -0.174500
     19 C19         -2.6760     0.4120    -0.0960 ca         1 04K      -0.107000
     20 O20         -6.3280     0.1590    -0.4500 os         1 04K      -0.303900
     21 C21         -6.6940     1.4910    -0.7600 c3         1 04K       0.142400
     22 C22         -8.1900     1.5330    -0.9770 c3         1 04K       0.169800
     23 N23         -8.9520     1.2180     0.2180 n3         1 04K      -0.722600
     24 C24         -9.0630     2.3670     1.1020 c3         1 04K       0.174300
     25 C25         -9.4120     1.9920     2.5330 c3         1 04K      -0.089600
     26 C26        -10.2400     0.6240    -0.1070 c3         1 04K       0.174300
     27 C27        -10.1180    -0.8360    -0.5140 c3         1 04K      -0.089600
     28 O28          5.7440    -2.0980     0.3570 o          1 04K      -0.586500
     29 C29          3.4000    -2.9540     1.3080 c3         1 04K       0.078300
     30 C30          8.3370     0.4020    -0.9850 ca         1 04K      -0.142000
     31 C31          9.2920     1.0210    -0.1940 ca         1 04K      -0.138500
     32 C32          8.8860     1.6940     0.9430 ca         1 04K       0.106900
     33 C33          7.5580     1.7620     1.3090 ca         1 04K      -0.138500
     34 C34          6.6020     1.1460     0.5120 ca         1 04K      -0.142000
     35 F35          9.8090     2.3010     1.7120 f          1 04K      -0.145900
     36 H4           1.3120     1.2210    -2.1590 h4         1 04K       0.028100
     37 H10          3.8650     1.0260    -2.2160 ha         1 04K       0.155000
     38 HN13        -0.9920    -2.2010     0.9970 hn         1 04K       0.457800
     39 H15         -3.1860    -2.8900     0.4070 ha         1 04K       0.142500
     40 H16         -5.5080    -2.1950     0.0640 ha         1 04K       0.143000
     41 H18         -4.1840     1.8500    -0.5060 ha         1 04K       0.143000
     42 H19         -1.9030     1.1630    -0.1280 ha         1 04K       0.142500
     43 H21         -6.3900     2.1690     0.0450 h1         1 04K       0.034200
     44 H21A        -6.1890     1.8250    -1.6740 h1         1 04K       0.034200
     45 H22         -8.4450     2.5260    -1.3820 h1         1 04K       0.043700
     46 H22A        -8.4380     0.8190    -1.7640 h1         1 04K       0.043700
     47 H24         -8.0980     2.8780     1.1180 h1         1 04K       0.025950
     48 H24A        -9.7870     3.1060     0.7190 h1         1 04K       0.025950
     49 H25        -10.4040     1.5500     2.6220 hc         1 04K       0.038200
     50 H25A        -8.6890     1.2770     2.9290 hc         1 04K       0.038200
     51 H25B        -9.3950     2.8780     3.1680 hc         1 04K       0.038200
     52 H26        -10.8810     0.6800     0.7740 h1         1 04K       0.025950
     53 H26A       -10.7600     1.1940    -0.8950 h1         1 04K       0.025950
     54 H27         -9.4740    -0.9700    -1.3840 hc         1 04K       0.038200
     55 H27A        -9.7000    -1.4270     0.3010 hc         1 04K       0.038200
     56 H27B       -11.0970    -1.2460    -0.7660 hc         1 04K       0.038200
     57 H29          3.8860    -3.8410     0.9110 h1         1 04K       0.061700
     58 H29A         3.8830    -2.6730     2.2420 h1         1 04K       0.061700
     59 H29B         2.3570    -3.1720     1.4980 h1         1 04K       0.061700
     60 H30          8.6370    -0.1270    -1.8800 ha         1 04K       0.146500
     61 H31         10.3390     0.9790    -0.4650 ha         1 04K       0.149500
     62 H33          7.2600     2.2940     2.2030 ha         1 04K       0.149500
     63 H34          5.5600     1.2180     0.7950 ha         1 04K       0.146500
@<TRIPOS>BOND
     1     1     2 ar  
     2     1     4 ar  
     3     2     3 ar  
     4     2    13 1   
     5     3     6 ar  
     6     4     5 ar  
     7     4    36 1   
     8     5     6 ar  
     9     5    10 1   
    10     6     7 1   
    11     7     8 1   
    12     7    29 1   
    13     8     9 1   
    14     8    28 2   
    15     9    10 2   
    16     9    11 1   
    17    10    37 1   
    18    11    12 1   
    19    12    30 ar  
    20    12    34 ar  
    21    13    14 1   
    22    13    38 1   
    23    14    15 ar  
    24    14    19 ar  
    25    15    16 ar  
    26    15    39 1   
    27    16    17 ar  
    28    16    40 1   
    29    17    18 ar  
    30    17    20 1   
    31    18    19 ar  
    32    18    41 1   
    33    19    42 1   
    34    20    21 1   
    35    21    22 1   
    36    21    43 1   
    37    21    44 1   
    38    22    23 1   
    39    22    45 1   
    40    22    46 1   
    41    23    24 1   
    42    23    26 1   
    43    24    25 1   
    44    24    47 1   
    45    24    48 1   
    46    25    49 1   
    47    25    50 1   
    48    25    51 1   
    49    26    27 1   
    50    26    52 1   
    51    26    53 1   
    52    27    54 1   
    53    27    55 1   
    54    27    56 1   
    55    29    57 1   
    56    29    58 1   
    57    29    59 1   
    58    30    31 ar  
    59    30    60 1   
    60    31    32 ar  
    61    31    61 1   
    62    32    33 ar  
    63    32    35 1   
    64    33    34 ar  
    65    33    62 1   
    66    34    63 1   
@<TRIPOS>SUBSTRUCTURE
     1 04K         1 TEMP              0 ****  ****    0 ROOT
