@<TRIPOS>MOLECULE
04L
   59    63     1     0     0
SMALL
bcc


@<TRIPOS>ATOM
      1 C1           6.2920    -1.0060     0.2660 cc         1 04L       0.486400
      2 N2           5.6170    -1.4360     1.3690 na         1 04L      -0.360000
      3 N3           5.5820    -0.1850    -0.4700 nd         1 04L      -0.569100
      4 C4           4.3860    -0.8460     1.3390 ca         1 04L       0.376800
      5 C5           0.6390     2.2380    -0.2170 c          1 04L       0.685700
      6 C6           4.3850    -0.0640     0.1760 ca         1 04L      -0.004900
      7 C7          -0.7850     2.6830    -0.1110 ca         1 04L      -0.127600
      8 N8           3.3950    -0.9620     2.1980 nb         1 04L      -0.643000
      9 C10          3.2460     0.6690    -0.1370 ca         1 04L      -0.060000
     10 C11         -5.4170     1.0760    -0.1110 c          1 04L       0.681300
     11 C12         -6.0470    -0.2550    -0.2410 ce         1 04L      -0.263200
     12 C14          2.1870     0.5650     0.7600 ca         1 04L      -0.070700
     13 C15         -7.3740    -0.3930    -0.1600 cf         1 04L      -0.011200
     14 C16         -1.7870     1.7240    -0.1670 ca         1 04L      -0.170000
     15 C17          7.6570    -1.4200    -0.0490 ca         1 04L      -0.120900
     16 O18          1.4240     2.7570    -0.9900 o          1 04L      -0.569100
     17 C19         -1.0990     4.0440     0.0010 ca         1 04L      -0.047300
     18 C20         -3.1360     2.0760    -0.1190 ca         1 04L       0.069600
     19 O21         -6.0540     2.1030     0.0620 o          1 04L      -0.586100
     20 C22          2.3180    -0.2560     1.8980 ca         1 04L       0.374200
     21 C23         -2.4490     4.3700     0.0680 ca         1 04L      -0.114000
     22 C24         -3.4620     3.4250     0.0050 ca         1 04L      -0.126000
     23 C25         -8.1310    -1.6360    -0.2660 ca         1 04L      -0.083800
     24 C26         -0.0600     5.1260     0.0720 c3         1 04L      -0.047800
     25 C27          8.2870    -2.4600     0.6350 ca         1 04L      -0.097000
     26 C28          8.3470    -0.7580    -1.0670 ca         1 04L      -0.097000
     27 C29         -7.5310    -2.8790    -0.4980 ca         1 04L      -0.101500
     28 C30         -9.5200    -1.5820    -0.1280 ca         1 04L      -0.101500
     29 C31          9.5840    -2.8270     0.3100 ca         1 04L      -0.132500
     30 C32          9.6420    -1.1280    -1.3880 ca         1 04L      -0.132500
     31 C33         -8.3000    -4.0260    -0.5880 ca         1 04L      -0.133000
     32 C34        -10.2910    -2.7320    -0.2180 ca         1 04L      -0.133000
     33 C35         10.2650    -2.1620    -0.7000 ca         1 04L      -0.111000
     34 C36         -9.6830    -3.9570    -0.4490 ca         1 04L      -0.109000
     35 HN9          0.2460     0.9410     1.2770 hn         1 04L       0.322500
     36 H10          3.2050     1.2760    -1.0260 ha         1 04L       0.185000
     37 H12         -5.4000    -1.1110    -0.3990 ha         1 04L       0.129000
     38 HN13        -3.6530     0.1200    -0.3340 hn         1 04L       0.317500
     39 H15         -7.9690     0.5000     0.0040 ha         1 04L       0.147000
     40 H16         -1.5200     0.6780    -0.2740 ha         1 04L       0.130000
     41 H22          1.4860    -0.3320     2.5920 h4         1 04L       0.017100
     42 H23         -2.7300     5.4110     0.1770 ha         1 04L       0.137000
     43 H24         -4.4880     3.7500     0.0580 ha         1 04L       0.170000
     44 H26          0.4040     5.3000    -0.8980 hc         1 04L       0.051367
     45 H26A        -0.5130     6.0620     0.3950 hc         1 04L       0.051367
     46 H26B         0.7390     4.8860     0.7740 hc         1 04L       0.051367
     47 H27          7.7750    -3.0050     1.4180 ha         1 04L       0.141500
     48 H28          7.8640     0.0500    -1.6000 ha         1 04L       0.141500
     49 H29         -6.4570    -2.9580    -0.6080 ha         1 04L       0.132000
     50 H30         -9.9990    -0.6280     0.0540 ha         1 04L       0.132000
     51 H31         10.0610    -3.6360     0.8470 ha         1 04L       0.136000
     52 H32         10.1690    -0.6060    -2.1750 ha         1 04L       0.136000
     53 H33         -7.8210    -4.9790    -0.7700 ha         1 04L       0.135000
     54 H34        -11.3660    -2.6690    -0.1090 ha         1 04L       0.135000
     55 H35         11.2780    -2.4490    -0.9510 ha         1 04L       0.134000
     56 H36        -10.2810    -4.8560    -0.5200 ha         1 04L       0.134000
     57 HN2          5.9620    -2.0400     2.0990 hn         1 04L       0.317700
     58 N9           0.9570     1.2150     0.6150 ns         1 04L      -0.468100
     59 N13         -4.0600     1.0340    -0.2040 ns         1 04L      -0.470100
@<TRIPOS>BOND
     1     1     2 1   
     2     1     3 2   
     3     1    15 1   
     4     2     4 1   
     5     2    57 1   
     6     3     6 1   
     7     4     6 ar  
     8     4     8 ar  
     9     5     7 1   
    10     5    16 2   
    11     5    58 1   
    12     6     9 ar  
    13     7    14 ar  
    14     7    17 ar  
    15     8    20 ar  
    16     9    12 ar  
    17     9    36 1   
    18    10    11 1   
    19    10    19 2   
    20    10    59 1   
    21    11    13 2   
    22    11    37 1   
    23    12    20 ar  
    24    12    58 1   
    25    13    23 1   
    26    13    39 1   
    27    14    18 ar  
    28    14    40 1   
    29    15    25 ar  
    30    15    26 ar  
    31    17    21 ar  
    32    17    24 1   
    33    18    22 ar  
    34    18    59 1   
    35    20    41 1   
    36    21    22 ar  
    37    21    42 1   
    38    22    43 1   
    39    23    27 ar  
    40    23    28 ar  
    41    24    44 1   
    42    24    45 1   
    43    24    46 1   
    44    25    29 ar  
    45    25    47 1   
    46    26    30 ar  
    47    26    48 1   
    48    27    31 ar  
    49    27    49 1   
    50    28    32 ar  
    51    28    50 1   
    52    29    33 ar  
    53    29    51 1   
    54    30    33 ar  
    55    30    52 1   
    56    31    34 ar  
    57    31    53 1   
    58    32    34 ar  
    59    32    54 1   
    60    33    55 1   
    61    34    56 1   
    62    35    58 1   
    63    38    59 1   
@<TRIPOS>SUBSTRUCTURE
     1 04L         1 TEMP              0 ****  ****    0 ROOT
