@<TRIPOS>MOLECULE
04L
   59    63     1     0     0
SMALL
No Charge or Current Charge


@<TRIPOS>ATOM
      1 C1           6.3440    -1.1210     0.1830 cc         1 04L       0.486400
      2 N2           5.3930    -2.0230     0.6500 na         1 04L      -0.410300
      3 N3           5.7710     0.0520    -0.1440 nd         1 04L      -0.569100
      4 C4           4.1830    -1.4220     0.6260 ca         1 04L       0.311500
      5 C5           0.6900     2.4140    -0.2060 c          1 04L       0.618700
      6 C6           4.4250    -0.1580     0.1400 ca         1 04L       0.060400
      7 C7          -0.7660     2.8830    -0.1690 ca         1 04L      -0.127600
      8 N8           2.9720    -1.8840     0.9780 nb         1 04L      -0.643000
      9 C10          3.3710     0.7520    -0.0180 ca         1 04L      -0.042000
     10 C11         -5.5230     1.2560    -0.0710 c          1 04L       0.614300
     11 C12         -6.1300    -0.1060    -0.0770 ce         1 04L      -0.313200
     12 C14          2.0740     0.3060     0.3410 ca         1 04L      -0.098000
     13 C15         -7.4730    -0.3580    -0.0420 cf         1 04L      -0.061200
     14 C16         -1.8120     1.9200    -0.1480 ca         1 04L      -0.152000
     15 C17          7.7800    -1.4230     0.0670 ca         1 04L      -0.120900
     16 O18          1.6000     3.1140    -0.6340 o          1 04L      -0.569100
     17 C19         -1.1250     4.2630    -0.1640 ca         1 04L      -0.047300
     18 C20         -3.1680     2.2920    -0.1240 ca         1 04L      -0.023000
     19 O21         -6.2120     2.2680    -0.0330 o          1 04L      -0.586100
     20 C22          1.9360    -1.0190     0.8330 ca         1 04L       0.308900
     21 C23         -2.4860     4.6270    -0.1430 ca         1 04L      -0.096000
     22 C24         -3.4980     3.6590    -0.1230 ca         1 04L      -0.108000
     23 C25         -8.1840    -1.6540    -0.0440 ca         1 04L      -0.083800
     24 C26         -0.0950     5.3930    -0.1470 c3         1 04L      -0.047800
     25 C27          8.2960    -2.6880     0.4350 ca         1 04L      -0.079000
     26 C28          8.6780    -0.4440    -0.4200 ca         1 04L      -0.079000
     27 C29         -7.4910    -2.8840    -0.0850 ca         1 04L      -0.083500
     28 C30         -9.5940    -1.6690    -0.0030 ca         1 04L      -0.083500
     29 C31          9.6700    -2.9620     0.3190 ca         1 04L      -0.114500
     30 C32         10.0510    -0.7220    -0.5350 ca         1 04L      -0.114500
     31 C33         -8.1960    -4.1010    -0.0860 ca         1 04L      -0.115000
     32 C34        -10.2980    -2.8860    -0.0040 ca         1 04L      -0.115000
     33 C35         10.5480    -1.9810    -0.1660 ca         1 04L      -0.093000
     34 C36         -9.6000    -4.1030    -0.0450 ca         1 04L      -0.091000
     35 HN9          0.0600     0.6520     0.5650 hn         1 04L       0.156000
     36 H10          3.5760     1.7460    -0.4010 ha         1 04L       0.167000
     37 H12         -5.4260    -0.9340    -0.1120 ha         1 04L       0.179000
     38 HN13        -3.7320     0.3210    -0.1360 hn         1 04L       0.151000
     39 H15         -8.1390     0.5080    -0.0080 ha         1 04L       0.197000
     40 H16         -1.5830     0.8570    -0.1720 ha         1 04L       0.112000
     41 H22          0.9570    -1.3990     1.1210 h4         1 04L       0.017100
     42 H23         -2.7680     5.6780    -0.1370 ha         1 04L       0.119000
     43 H24         -4.5300     3.9950    -0.1080 ha         1 04L       0.152000
     44 H26          0.4330     5.4610    -1.1050 hc         1 04L       0.051367
     45 H26A        -0.5610     6.3690     0.0340 hc         1 04L       0.051367
     46 H26B         0.6460     5.2450     0.6470 hc         1 04L       0.051367
     47 H27          7.6420    -3.4690     0.8140 ha         1 04L       0.123500
     48 H28          8.3150     0.5400    -0.7120 ha         1 04L       0.123500
     49 H29         -6.4050    -2.9120    -0.1170 ha         1 04L       0.114000
     50 H30        -10.1510    -0.7350     0.0290 ha         1 04L       0.114000
     51 H31         10.0540    -3.9390     0.6050 ha         1 04L       0.118000
     52 H32         10.7290     0.0410    -0.9110 ha         1 04L       0.118000
     53 H33         -7.6530    -5.0430    -0.1180 ha         1 04L       0.117000
     54 H34        -11.3850    -2.8840     0.0280 ha         1 04L       0.117000
     55 H35         11.6110    -2.1950    -0.2550 ha         1 04L       0.116000
     56 H36        -10.1440    -5.0450    -0.0450 ha         1 04L       0.116000
     57 HN2          5.5710    -2.9650     0.9570 hn         1 04L       0.368000
     58 N9           0.9000     1.1120     0.2390 ns         1 04L      -0.142000
     59 N13         -4.1350     1.2480    -0.1110 ns         1 04L      -0.144000
@<TRIPOS>BOND
     1     1     2 1   
     2     1     3 2   
     3     1    15 1   
     4     2     4 1   
     5     2    57 1   
     6     3     6 1   
     7     4     6 ar  
     8     4     8 ar  
     9     5     7 1   
    10     5    16 2   
    11     5    58 1   
    12     6     9 ar  
    13     7    14 ar  
    14     7    17 ar  
    15     8    20 ar  
    16     9    12 ar  
    17     9    36 1   
    18    10    11 1   
    19    10    19 2   
    20    10    59 1   
    21    11    13 2   
    22    11    37 1   
    23    12    20 ar  
    24    12    58 1   
    25    13    23 1   
    26    13    39 1   
    27    14    18 ar  
    28    14    40 1   
    29    15    25 ar  
    30    15    26 ar  
    31    17    21 ar  
    32    17    24 1   
    33    18    22 ar  
    34    18    59 1   
    35    20    41 1   
    36    21    22 ar  
    37    21    42 1   
    38    22    43 1   
    39    23    27 ar  
    40    23    28 ar  
    41    24    44 1   
    42    24    45 1   
    43    24    46 1   
    44    25    29 ar  
    45    25    47 1   
    46    26    30 ar  
    47    26    48 1   
    48    27    31 ar  
    49    27    49 1   
    50    28    32 ar  
    51    28    50 1   
    52    29    33 ar  
    53    29    51 1   
    54    30    33 ar  
    55    30    52 1   
    56    31    34 ar  
    57    31    53 1   
    58    32    34 ar  
    59    32    54 1   
    60    33    55 1   
    61    34    56 1   
    62    35    58 1   
    63    38    59 1   
@<TRIPOS>SUBSTRUCTURE
     1 04L         1 TEMP              0 ****  ****    0 ROOT
