@<TRIPOS>MOLECULE
04M
   69    71     1     0     0
SMALL
No Charge or Current Charge


@<TRIPOS>ATOM
      1 CAA        -14.2130     2.2670     0.8670 c3         1 04M      -0.088100
      2 OAB          1.6150     2.5790    -1.6480 o          1 04M      -0.702000
      3 OAC          6.2030     2.9740     0.9800 o          1 04M      -0.556000
      4 OAD          6.3730     1.3400     2.9300 o          1 04M      -0.556000
      5 OAE          1.6750     0.6450    -2.5970 o          1 04M      -0.702000
      6 CAF         -2.4600    -3.3920    -1.6700 ca         1 04M      -0.083000
      7 CAG         -1.2290    -3.1090    -1.0540 ca         1 04M      -0.115000
      8 CAH         -3.6190    -2.6990    -1.2830 ca         1 04M      -0.196000
      9 CAI          3.9790    -0.1760     1.7830 ca         1 04M      -0.006000
     10 CAJ          2.7460    -0.7320     1.4110 ca         1 04M      -0.257000
     11 CAK         -2.3130    -1.4370     0.3380 ca         1 04M      -0.111000
     12 CAL          3.8210     1.3950    -0.0700 ca         1 04M       0.022000
     13 CAM        -13.2370     1.3060     0.1620 c3         1 04M      -0.075400
     14 CAN        -11.7870     1.4310     0.6770 c3         1 04M      -0.076400
     15 CAO        -10.8090     0.4670    -0.0300 c3         1 04M      -0.074400
     16 CAP         -9.3580     0.5920     0.4860 c3         1 04M      -0.074400
     17 CAQ         -8.3810    -0.3720    -0.2220 c3         1 04M      -0.073400
     18 CAR         -6.9300    -0.2470     0.2930 c3         1 04M      -0.082400
     19 CAS         -5.9570    -1.2100    -0.4140 c3         1 04M       0.169600
     20 CAT          8.4200    -1.5180     0.2550 c6         1 04M       0.154600
     21 CAU          8.3070     0.0550    -1.5640 c6         1 04M       0.154600
     22 CAW          7.2780    -0.7720     1.0040 c6         1 04M       0.150800
     23 CAX          7.1640     0.8350    -0.8530 c6         1 04M       0.150800
     24 OAY          8.2840    -1.3390    -1.1750 os         1 04M      -0.450000
     25 OAZ         -4.6500    -1.0010     0.1480 os         1 04M      -0.350100
     26 OBA          0.8140    -0.7420    -0.0810 os         1 04M      -0.283100
     27 CBC         -1.1480    -2.1310    -0.0450 ca         1 04M      -0.040300
     28 CBD         -3.5470    -1.7140    -0.2730 ca         1 04M       0.137100
     29 CBE          4.5220     0.8880     1.0410 ca         1 04M      -0.368500
     30 CBF          2.0430    -0.2320     0.2920 ca         1 04M       0.211100
     31 CBG          2.5890     0.8320    -0.4520 ca         1 04M      -0.173600
     32 NBH          7.2300     0.6760     0.6330 n3         1 04M      -0.716500
     33 HAA        -15.2270     2.1420     0.4690 hc         1 04M       0.029700
     34 HAAA       -14.2410     2.0700     1.9460 hc         1 04M       0.029700
     35 HAAB       -13.9100     3.3100     0.7130 hc         1 04M       0.029700
     36 HAF         -2.5140    -4.1500    -2.4490 ha         1 04M       0.103000
     37 HAG         -0.3370    -3.6500    -1.3630 ha         1 04M       0.117000
     38 HAH         -4.5570    -2.9370    -1.7750 ha         1 04M       0.106000
     39 HAI          4.5070    -0.5740     2.6490 ha         1 04M       0.108000
     40 HAJ          2.3520    -1.5490     2.0070 ha         1 04M       0.097000
     41 HAK         -2.2620    -0.6770     1.1140 ha         1 04M       0.132000
     42 HAL          4.2310     2.2230    -0.6490 ha         1 04M       0.147000
     43 HAM        -13.5860     0.2760     0.3050 hc         1 04M       0.035700
     44 HAMA       -13.2580     1.5050    -0.9170 hc         1 04M       0.035700
     45 HAN        -11.4420     2.4630     0.5350 hc         1 04M       0.037700
     46 HANA       -11.7700     1.2330     1.7570 hc         1 04M       0.037700
     47 HAO        -11.1540    -0.5650     0.1130 hc         1 04M       0.036200
     48 HAOA       -10.8260     0.6650    -1.1090 hc         1 04M       0.036200
     49 HAP         -9.0130     1.6240     0.3430 hc         1 04M       0.040700
     50 HAPA        -9.3410     0.3950     1.5650 hc         1 04M       0.040700
     51 HAQ         -8.7250    -1.4040    -0.0800 hc         1 04M       0.036200
     52 HAQA        -8.3970    -0.1740    -1.3010 hc         1 04M       0.036200
     53 HAR         -6.5810     0.7830     0.1490 hc         1 04M       0.056200
     54 HARA        -6.9090    -0.4480     1.3720 hc         1 04M       0.056200
     55 HAS         -6.2860    -2.2450    -0.2560 h1         1 04M       0.029700
     56 HASA        -5.9530    -1.0010    -1.4920 h1         1 04M       0.029700
     57 HAU          8.1880     0.1250    -2.6550 h1         1 04M       0.047450
     58 HAUA         9.2810     0.4890    -1.2970 h1         1 04M       0.047450
     59 HAW          6.3260    -1.2670     0.7630 h1         1 04M       0.068950
     60 HAWA         7.4400    -0.8940     2.0850 h1         1 04M       0.068950
     61 HAX          7.2450     1.8940    -1.1380 h1         1 04M       0.068950
     62 HAXA         6.2020     0.4690    -1.2410 h1         1 04M       0.068950
     63 CBB          1.8710     1.3830    -1.6430 c          1 04M       0.723600
     64 HAT          9.3970    -1.1300     0.5780 h1         1 04M       0.047450
     65 CAV          0.1840    -1.8230     0.6250 c3         1 04M       0.203900
     66 SBI          6.1050     1.6100     1.5120 sy         1 04M       1.159600
     67 HATA         8.3830    -2.5910     0.4880 h1         1 04M       0.047450
     68 HAV          0.8190    -2.7190     0.6050 h1         1 04M       0.032200
     69 HAVA         0.0090    -1.5500     1.6730 h1         1 04M       0.032200
@<TRIPOS>BOND
     1     1    13 1   
     2     1    33 1   
     3     1    34 1   
     4     1    35 1   
     5     2    63 1   
     6     3    66 2   
     7     4    66 2   
     8     5    63 1   
     9     6     7 ar  
    10     6     8 ar  
    11     6    36 1   
    12     7    27 ar  
    13     7    37 1   
    14     8    28 ar  
    15     8    38 1   
    16     9    10 ar  
    17     9    29 ar  
    18     9    39 1   
    19    10    30 ar  
    20    10    40 1   
    21    11    27 ar  
    22    11    28 ar  
    23    11    41 1   
    24    12    29 ar  
    25    12    31 ar  
    26    12    42 1   
    27    13    14 1   
    28    13    43 1   
    29    13    44 1   
    30    14    15 1   
    31    14    45 1   
    32    14    46 1   
    33    15    16 1   
    34    15    47 1   
    35    15    48 1   
    36    16    17 1   
    37    16    49 1   
    38    16    50 1   
    39    17    18 1   
    40    17    51 1   
    41    17    52 1   
    42    18    19 1   
    43    18    53 1   
    44    18    54 1   
    45    19    25 1   
    46    19    55 1   
    47    19    56 1   
    48    20    22 1   
    49    20    24 1   
    50    20    64 1   
    51    20    67 1   
    52    21    23 1   
    53    21    24 1   
    54    21    57 1   
    55    21    58 1   
    56    22    32 1   
    57    22    59 1   
    58    22    60 1   
    59    23    32 1   
    60    23    61 1   
    61    23    62 1   
    62    25    28 1   
    63    26    30 1   
    64    26    65 1   
    65    27    65 1   
    66    29    66 1   
    67    30    31 ar  
    68    31    63 1   
    69    32    66 1   
    70    65    68 1   
    71    65    69 1   
@<TRIPOS>SUBSTRUCTURE
     1 04M         1 TEMP              0 ****  ****    0 ROOT
