@<TRIPOS>MOLECULE
04M
   69    71     1     0     0
SMALL
bcc


@<TRIPOS>ATOM
      1 CAA        -14.0360     2.2060     0.8970 c3         1 04M      -0.088100
      2 OAB          1.7670     2.5750    -1.7900 o          1 04M      -0.807300
      3 OAC          5.9730     2.8170     1.0220 o          1 04M      -0.626800
      4 OAD          6.1620     1.1300     2.8740 o          1 04M      -0.626800
      5 OAE          1.3680     0.5180    -2.5600 o          1 04M      -0.807300
      6 CAF         -2.5540    -3.4370    -1.5660 ca         1 04M      -0.101000
      7 CAG         -1.3220    -3.1870    -0.9840 ca         1 04M      -0.133000
      8 CAH         -3.6700    -2.6750    -1.2390 ca         1 04M      -0.214000
      9 CAI          3.8130    -0.2970     1.7420 ca         1 04M      -0.024000
     10 CAJ          2.6010    -0.8410     1.3540 ca         1 04M      -0.275000
     11 CAK         -2.3050    -1.3910     0.2750 ca         1 04M      -0.129000
     12 CAL          3.6410     1.3060    -0.0480 ca         1 04M       0.004000
     13 CAM        -13.0820     1.2240     0.2310 c3         1 04M      -0.075400
     14 CAN        -11.6300     1.4380     0.6430 c3         1 04M      -0.076400
     15 CAO        -10.6650     0.4540    -0.0060 c3         1 04M      -0.074400
     16 CAP         -9.2180     0.6670     0.4210 c3         1 04M      -0.074400
     17 CAQ         -8.2510    -0.3220    -0.2170 c3         1 04M      -0.073400
     18 CAR         -6.8110    -0.1060     0.2340 c3         1 04M      -0.082400
     19 CAS         -5.8670    -1.1010    -0.4070 c3         1 04M       0.146400
     20 CAT          8.4540    -1.3380     0.2710 c6         1 04M       0.131400
     21 CAU          8.3350     0.2500    -1.4140 c6         1 04M       0.131400
     22 CAW          7.1790    -0.8260     0.9160 c6         1 04M       0.150800
     23 CAX          7.0540     0.8360    -0.8470 c6         1 04M       0.150800
     24 OAY          8.4570    -1.1210    -1.1200 os         1 04M      -0.403600
     25 OAZ         -4.5580    -0.8480     0.0830 os         1 04M      -0.326900
     26 OBA          0.7270    -0.8010    -0.1510 os         1 04M      -0.259900
     27 CBC         -1.1980    -2.1570    -0.0550 ca         1 04M      -0.040300
     28 CBD         -3.5460    -1.6430    -0.3110 ca         1 04M       0.137100
     29 CBE          4.3340     0.7770     1.0370 ca         1 04M      -0.368500
     30 CBF          1.9150    -0.3320     0.2470 ca         1 04M       0.211100
     31 CBG          2.4480     0.7500    -0.4760 ca         1 04M      -0.173600
     32 NBH          7.0370     0.5960     0.5970 n3         1 04M      -0.716500
     33 HAA        -15.0700     2.0260     0.6000 hc         1 04M       0.029700
     34 HAAA       -13.9860     2.1270     1.9840 hc         1 04M       0.029700
     35 HAAB       -13.7920     3.2360     0.6310 hc         1 04M       0.029700
     36 HAF         -2.6580    -4.2380    -2.2850 ha         1 04M       0.121000
     37 HAG         -0.4640    -3.7940    -1.2440 ha         1 04M       0.135000
     38 HAH         -4.6180    -2.8990    -1.7100 ha         1 04M       0.124000
     39 HAI          4.3250    -0.7070     2.6010 ha         1 04M       0.126000
     40 HAJ          2.2040    -1.6630     1.9330 ha         1 04M       0.115000
     41 HAK         -2.2180    -0.5940     1.0050 ha         1 04M       0.150000
     42 HAL          4.0280     2.1650    -0.5800 ha         1 04M       0.165000
     43 HAM        -13.3800     0.2000     0.4770 hc         1 04M       0.035700
     44 HAMA       -13.1670     1.3100    -0.8570 hc         1 04M       0.035700
     45 HAN        -11.3300     2.4620     0.3900 hc         1 04M       0.037700
     46 HANA       -11.5490     1.3600     1.7330 hc         1 04M       0.037700
     47 HAO        -10.9700    -0.5680     0.2430 hc         1 04M       0.036200
     48 HAOA       -10.7400     0.5360    -1.0960 hc         1 04M       0.036200
     49 HAP         -8.9110     1.6880     0.1680 hc         1 04M       0.040700
     50 HAPA        -9.1460     0.5900     1.5110 hc         1 04M       0.040700
     51 HAQ         -8.5630    -1.3420     0.0290 hc         1 04M       0.036200
     52 HAQA        -8.3130    -0.2380    -1.3080 hc         1 04M       0.036200
     53 HAR         -6.4950     0.9100    -0.0180 hc         1 04M       0.056200
     54 HARA        -6.7510    -0.1990     1.3220 hc         1 04M       0.056200
     55 HAS         -6.1710    -2.1250    -0.1610 h1         1 04M       0.029700
     56 HASA        -5.8930    -1.0030    -1.4980 h1         1 04M       0.029700
     57 HAU          8.3290     0.3570    -2.4990 h1         1 04M       0.047450
     58 HAUA         9.1950     0.8090    -1.0190 h1         1 04M       0.047450
     59 HAW          6.3180    -1.4020     0.5520 h1         1 04M       0.068950
     60 HAWA         7.2540    -0.9630     1.9930 h1         1 04M       0.068950
     61 HAX          7.0420     1.9050    -1.0490 h1         1 04M       0.068950
     62 HAXA         6.1850     0.3790    -1.3390 h1         1 04M       0.068950
     63 CBB          1.7840     1.3330    -1.7220 c          1 04M       0.934200
     64 HAT          9.3180    -0.8490     0.7420 h1         1 04M       0.047450
     65 CAV          0.1270    -1.8620     0.5820 c3         1 04M       0.180700
     66 SBI          5.9060     1.4370     1.4760 sy         1 04M       1.301200
     67 HATA         8.5370    -2.4120     0.4400 h1         1 04M       0.047450
     68 HAV          0.7650    -2.7510     0.5590 h1         1 04M       0.032200
     69 HAVA        -0.0080    -1.5720     1.6290 h1         1 04M       0.032200
@<TRIPOS>BOND
     1     1    13 1   
     2     1    33 1   
     3     1    34 1   
     4     1    35 1   
     5     2    63 1   
     6     3    66 2   
     7     4    66 2   
     8     5    63 1   
     9     6     7 ar  
    10     6     8 ar  
    11     6    36 1   
    12     7    27 ar  
    13     7    37 1   
    14     8    28 ar  
    15     8    38 1   
    16     9    10 ar  
    17     9    29 ar  
    18     9    39 1   
    19    10    30 ar  
    20    10    40 1   
    21    11    27 ar  
    22    11    28 ar  
    23    11    41 1   
    24    12    29 ar  
    25    12    31 ar  
    26    12    42 1   
    27    13    14 1   
    28    13    43 1   
    29    13    44 1   
    30    14    15 1   
    31    14    45 1   
    32    14    46 1   
    33    15    16 1   
    34    15    47 1   
    35    15    48 1   
    36    16    17 1   
    37    16    49 1   
    38    16    50 1   
    39    17    18 1   
    40    17    51 1   
    41    17    52 1   
    42    18    19 1   
    43    18    53 1   
    44    18    54 1   
    45    19    25 1   
    46    19    55 1   
    47    19    56 1   
    48    20    22 1   
    49    20    24 1   
    50    20    64 1   
    51    20    67 1   
    52    21    23 1   
    53    21    24 1   
    54    21    57 1   
    55    21    58 1   
    56    22    32 1   
    57    22    59 1   
    58    22    60 1   
    59    23    32 1   
    60    23    61 1   
    61    23    62 1   
    62    25    28 1   
    63    26    30 1   
    64    26    65 1   
    65    27    65 1   
    66    29    66 1   
    67    30    31 ar  
    68    31    63 1   
    69    32    66 1   
    70    65    68 1   
    71    65    69 1   
@<TRIPOS>SUBSTRUCTURE
     1 04M         1 TEMP              0 ****  ****    0 ROOT
