@<TRIPOS>MOLECULE
04N
   36    38     1     0     0
SMALL
No Charge or Current Charge


@<TRIPOS>ATOM
      1 C1          -3.7090    -0.5430    -0.1520 c6         1 04N       0.386300
      2 O1          -3.8350    -0.2700    -1.5450 oh         1 04N      -0.653000
      3 C2          -3.3580     0.7560     0.6720 c6         1 04N       0.111500
      4 N2          -4.3320     1.8950     0.5350 n8         1 04N      -0.984200
      5 C3          -1.9270     1.2500     0.3120 c6         1 04N       0.188300
      6 O3          -1.6640     2.4300     1.0870 oh         1 04N      -0.713000
      7 C4          -0.9060     0.0980     0.5360 c6         1 04N       0.135300
      8 O4           0.4570     0.4690     0.2260 os         1 04N      -0.445000
      9 C5          -1.3310    -1.1050    -0.3490 c6         1 04N       0.094300
     10 O5          -2.6730    -1.5380     0.0070 os         1 04N      -0.476000
     11 C6          -0.2850    -2.2310    -0.1620 c6         1 04N       0.157600
     12 O6           1.0400    -1.7040    -0.4060 os         1 04N      -0.461000
     13 CAL          5.4120     0.7520    -0.5030 ca         1 04N      -0.100000
     14 CAM          5.1120     0.2980     0.7920 ca         1 04N      -0.120000
     15 CAN          4.4110     0.7670    -1.4890 ca         1 04N      -0.120000
     16 CAO          3.8130    -0.1400     1.1040 ca         1 04N      -0.077000
     17 CAP          3.1110     0.3290    -1.1800 ca         1 04N      -0.077000
     18 CBC          2.8030    -0.1270     0.1190 ca         1 04N      -0.082300
     19 CBP          1.3890    -0.6050     0.4620 c6         1 04N       0.427600
     20 H1          -4.6580    -0.9560     0.2250 h2         1 04N       0.059700
     21 H2          -3.3570     0.4790     1.7370 h1         1 04N       0.039700
     22 HN2         -4.5670     1.9890    -0.4630 hn         1 04N       0.399000
     23 HN2A        -5.2300     1.6190     0.9530 hn         1 04N       0.399000
     24 H3          -1.9130     1.5060    -0.7590 h1         1 04N       0.074700
     25 HO3         -2.5760     2.8050     1.1880 ho         1 04N       0.513000
     26 H4          -0.9480    -0.2040     1.5940 h1         1 04N       0.053700
     27 H5          -1.3170    -0.8010    -1.4060 h1         1 04N       0.077700
     28 H6          -0.3360    -2.6350     0.8600 h1         1 04N       0.060200
     29 H6A         -0.4830    -3.0500    -0.8680 h1         1 04N       0.060200
     30 HAM          5.8870     0.2860     1.5560 ha         1 04N       0.112500
     31 HAN          4.6410     1.1180    -2.4930 ha         1 04N       0.112500
     32 HAO          3.5910    -0.4890     2.1100 ha         1 04N       0.124500
     33 HAP          2.3390     0.3430    -1.9470 ha         1 04N       0.124500
     34 HBP          1.3520    -0.9220     1.5150 h2         1 04N       0.033700
     35 H7          -3.9780    -1.1460    -1.9600 ho         1 04N       0.454000
     36 HAL          6.4170     1.0910    -0.7430 ha         1 04N       0.111000
@<TRIPOS>BOND
     1     1     2 1   
     2     1     3 1   
     3     1    10 1   
     4     1    20 1   
     5     2    35 1   
     6     3     4 1   
     7     3     5 1   
     8     3    21 1   
     9     4    22 1   
    10     4    23 1   
    11     5     6 1   
    12     5     7 1   
    13     5    24 1   
    14     6    25 1   
    15     7     8 1   
    16     7     9 1   
    17     7    26 1   
    18     8    19 1   
    19     9    10 1   
    20     9    11 1   
    21     9    27 1   
    22    11    12 1   
    23    11    28 1   
    24    11    29 1   
    25    12    19 1   
    26    13    14 ar  
    27    13    15 ar  
    28    13    36 1   
    29    14    16 ar  
    30    14    30 1   
    31    15    17 ar  
    32    15    31 1   
    33    16    18 ar  
    34    16    32 1   
    35    17    18 ar  
    36    17    33 1   
    37    18    19 1   
    38    19    34 1   
@<TRIPOS>SUBSTRUCTURE
     1 04N         1 TEMP              0 ****  ****    0 ROOT
