@<TRIPOS>MOLECULE
04N
   36    38     1     0     0
SMALL
abcg2


@<TRIPOS>ATOM
      1 C1          -3.5770    -0.7400    -0.1840 c6         1 04N       0.386300
      2 O1          -3.6930    -0.6360    -1.5640 oh         1 04N      -0.653000
      3 C2          -3.3440     0.6540     0.4060 c6         1 04N       0.111500
      4 N2          -4.3670     1.5800    -0.0490 n8         1 04N      -0.984200
      5 C3          -1.9520     1.1920     0.0490 c6         1 04N       0.188300
      6 O3          -1.6860     2.4050     0.7150 oh         1 04N      -0.713000
      7 C4          -0.9400     0.1580     0.4860 c6         1 04N       0.135300
      8 O4           0.3730     0.5340     0.1280 os         1 04N      -0.445000
      9 C5          -1.2640    -1.1790    -0.1740 c6         1 04N       0.094300
     10 O5          -2.5460    -1.6220     0.2020 os         1 04N      -0.476000
     11 C6          -0.2130    -2.1850     0.2650 c6         1 04N       0.157600
     12 O6           1.0630    -1.6630    -0.0620 os         1 04N      -0.461000
     13 CAL          5.3030     0.7590    -0.4820 ca         1 04N      -0.100000
     14 CAM          5.0550    -0.4670     0.1250 ca         1 04N      -0.120000
     15 CAN          4.2450     1.6120    -0.7580 ca         1 04N      -0.120000
     16 CAO          3.7570    -0.8330     0.4480 ca         1 04N      -0.077000
     17 CAP          2.9430     1.2460    -0.4350 ca         1 04N      -0.077000
     18 CBC          2.6910     0.0190     0.1680 ca         1 04N      -0.082300
     19 CBP          1.3010    -0.4200     0.5430 c6         1 04N       0.427600
     20 H1          -4.4830    -1.1730     0.2580 h2         1 04N       0.059700
     21 H2          -3.3640     0.5130     1.4990 h1         1 04N       0.039700
     22 HN2         -5.2840     1.1610     0.0560 hn         1 04N       0.399000
     23 HN2A        -4.3780     2.3870     0.5620 hn         1 04N       0.399000
     24 H3          -1.8830     1.3230    -1.0390 h1         1 04N       0.074700
     25 HO3         -2.0940     3.1200     0.2190 ho         1 04N       0.513000
     26 H4          -1.0050     0.0330     1.5810 h1         1 04N       0.053700
     27 H5          -1.1900    -1.0580    -1.2630 h1         1 04N       0.077700
     28 H6          -0.2950    -2.3720     1.3450 h1         1 04N       0.060200
     29 H6A         -0.3200    -3.1360    -0.2570 h1         1 04N       0.060200
     30 HAM          5.8750    -1.1380     0.3480 ha         1 04N       0.112500
     31 HAN          4.4290     2.5690    -1.2300 ha         1 04N       0.112500
     32 HAO          3.5780    -1.7880     0.9260 ha         1 04N       0.124500
     33 HAP          2.1330     1.9260    -0.6560 ha         1 04N       0.124500
     34 HBP          1.2260    -0.5400     1.6390 h2         1 04N       0.033700
     35 H7          -4.0140    -1.4740    -1.9150 ho         1 04N       0.454000
     36 HAL          6.3150     1.0480    -0.7330 ha         1 04N       0.111000
@<TRIPOS>BOND
     1     1     2 1   
     2     1     3 1   
     3     1    10 1   
     4     1    20 1   
     5     2    35 1   
     6     3     4 1   
     7     3     5 1   
     8     3    21 1   
     9     4    22 1   
    10     4    23 1   
    11     5     6 1   
    12     5     7 1   
    13     5    24 1   
    14     6    25 1   
    15     7     8 1   
    16     7     9 1   
    17     7    26 1   
    18     8    19 1   
    19     9    10 1   
    20     9    11 1   
    21     9    27 1   
    22    11    12 1   
    23    11    28 1   
    24    11    29 1   
    25    12    19 1   
    26    13    14 ar  
    27    13    15 ar  
    28    13    36 1   
    29    14    16 ar  
    30    14    30 1   
    31    15    17 ar  
    32    15    31 1   
    33    16    18 ar  
    34    16    32 1   
    35    17    18 ar  
    36    17    33 1   
    37    18    19 1   
    38    19    34 1   
@<TRIPOS>SUBSTRUCTURE
     1 04N         1 TEMP              0 ****  ****    0 ROOT
