@<TRIPOS>MOLECULE
04O
   42    44     1     0     0
SMALL
abcg2


@<TRIPOS>ATOM
      1 C11         -4.5060    -0.7060    -0.0410 c6         1 04O       0.387300
      2 O11         -4.6250    -0.9300    -1.4060 oh         1 04O      -0.652000
      3 C16          4.2300    -0.2050     0.2710 ca         1 04O      -0.080300
      4 C21         -4.2670     0.7880     0.2040 c6         1 04O       0.112500
      5 N21         -5.2970     1.5800    -0.4440 n8         1 04O      -0.982200
      6 C26          4.8590     0.9090     0.8230 ca         1 04O      -0.106000
      7 C31         -2.8800     1.2190    -0.2900 c6         1 04O       0.187300
      8 O31         -2.6030     2.5560     0.0580 oh         1 04O      -0.714000
      9 C36          6.0860     1.3460     0.3420 ca         1 04O      -0.110000
     10 C41         -1.8640     0.3170     0.3750 c6         1 04O       0.134300
     11 O41         -0.5560     0.5920    -0.0750 os         1 04O      -0.448000
     12 C46          6.7060     0.6730    -0.7030 ca         1 04O      -0.111000
     13 C51         -2.1930    -1.1390     0.0640 c6         1 04O       0.095300
     14 O51         -3.4760    -1.4760     0.5390 os         1 04O      -0.477000
     15 C56          6.0890    -0.4390    -1.2610 ca         1 04O      -0.110000
     16 C61         -1.1430    -2.0080     0.7350 c6         1 04O       0.159600
     17 O61          0.1330    -1.5860     0.2930 os         1 04O      -0.468000
     18 C66          4.8610    -0.8720    -0.7760 ca         1 04O      -0.106000
     19 CBJ          0.3820    -0.2330     0.5620 c6         1 04O       0.378300
     20 H11         -5.4120    -1.0200     0.4920 h2         1 04O       0.059700
     21 H21         -4.2700     0.9080     1.3000 h1         1 04O       0.039700
     22 HN21        -6.2120     1.2540    -0.1550 hn         1 04O       0.398000
     23 HN2A        -5.2420     2.5330    -0.1070 hn         1 04O       0.398000
     24 H26          4.3840     1.4420     1.6390 ha         1 04O       0.111500
     25 H31         -2.8260     1.0810    -1.3780 h1         1 04O       0.075700
     26 HO31        -2.9590     3.1310    -0.6240 ho         1 04O       0.512000
     27 H35          1.9050     1.1980     0.2120 hc         1 04O       0.066200
     28 H35A         1.8090    -0.0470    -1.0250 hc         1 04O       0.066200
     29 H36          6.5610     2.2120     0.7870 ha         1 04O       0.111000
     30 H41         -1.9200     0.4620     1.4680 h1         1 04O       0.052700
     31 H45          2.7550    -1.7150     0.5860 hc         1 04O       0.052700
     32 H45A         2.8010    -0.4870     1.8380 hc         1 04O       0.052700
     33 H46          7.6640     1.0090    -1.0770 ha         1 04O       0.111000
     34 H51         -2.1230    -1.2900    -1.0220 h1         1 04O       0.076700
     35 H56          6.5650    -0.9740    -2.0730 ha         1 04O       0.111000
     36 H61         -1.2270    -1.9250     1.8280 h1         1 04O       0.058700
     37 H61A        -1.2520    -3.0590     0.4650 h1         1 04O       0.058700
     38 H66          4.3860    -1.7410    -1.2170 ha         1 04O       0.111500
     39 HBJ          0.3180    -0.0680     1.6540 h2         1 04O       0.024700
     40 H2          -4.9530    -1.8250    -1.5480 ho         1 04O       0.453000
     41 C35          1.7610     0.1270     0.0540 c3         1 04O      -0.065400
     42 C45          2.8770    -0.6450     0.7580 c3         1 04O      -0.027100
@<TRIPOS>BOND
     1     1     2 1   
     2     1     4 1   
     3     1    14 1   
     4     1    20 1   
     5     2    40 1   
     6     3     6 ar  
     7     3    18 ar  
     8     3    42 1   
     9     4     5 1   
    10     4     7 1   
    11     4    21 1   
    12     5    22 1   
    13     5    23 1   
    14     6     9 ar  
    15     6    24 1   
    16     7     8 1   
    17     7    10 1   
    18     7    25 1   
    19     8    26 1   
    20     9    12 ar  
    21     9    29 1   
    22    10    11 1   
    23    10    13 1   
    24    10    30 1   
    25    11    19 1   
    26    12    15 ar  
    27    12    33 1   
    28    13    14 1   
    29    13    16 1   
    30    13    34 1   
    31    15    18 ar  
    32    15    35 1   
    33    16    17 1   
    34    16    36 1   
    35    16    37 1   
    36    17    19 1   
    37    18    38 1   
    38    19    39 1   
    39    19    41 1   
    40    27    41 1   
    41    28    41 1   
    42    31    42 1   
    43    32    42 1   
    44    41    42 1   
@<TRIPOS>SUBSTRUCTURE
     1 04O         1 TEMP              0 ****  ****    0 ROOT
