@<TRIPOS>MOLECULE
04O
   42    44     1     0     0
SMALL
No Charge or Current Charge


@<TRIPOS>ATOM
      1 C11         -4.6440    -0.6190     0.0200 c6         1 04O       0.387300
      2 O11         -4.7370    -0.9950    -1.3510 oh         1 04O      -0.652000
      3 C16          4.3520    -0.2010     0.2670 ca         1 04O      -0.080300
      4 C21         -4.3590     0.9240     0.1870 c6         1 04O       0.112500
      5 N21         -5.3640     1.8430    -0.4540 n8         1 04O      -0.982200
      6 C26          5.0830     0.8450     0.8650 ca         1 04O      -0.106000
      7 C31         -2.9340     1.2670    -0.3340 c6         1 04O       0.187300
      8 O31         -2.7310     2.6790    -0.1600 oh         1 04O      -0.714000
      9 C36          6.3360     1.2180     0.3510 ca         1 04O      -0.110000
     10 C41         -1.8860     0.3770     0.3910 c6         1 04O       0.134300
     11 O41         -0.5240     0.6290    -0.0310 os         1 04O      -0.448000
     12 C46          6.8660     0.5490    -0.7660 ca         1 04O      -0.111000
     13 C51         -2.2450    -1.1100     0.1250 c6         1 04O       0.095300
     14 O51         -3.5820    -1.3970     0.6180 os         1 04O      -0.477000
     15 C56          6.1420    -0.4930    -1.3670 ca         1 04O      -0.110000
     16 C61         -1.1690    -1.9940     0.8030 c6         1 04O       0.159600
     17 O61          0.1460    -1.5710     0.3700 os         1 04O      -0.468000
     18 C66          4.8880    -0.8670    -0.8530 ca         1 04O      -0.106000
     19 CBJ          0.4290    -0.1900     0.6720 c6         1 04O       0.378300
     20 H11         -5.5910    -0.8610     0.5280 h2         1 04O       0.059700
     21 H21         -4.3830     1.1470     1.2650 h1         1 04O       0.039700
     22 HN21        -5.5700     1.4760    -1.3930 hn         1 04O       0.398000
     23 HN2A        -6.2660     1.7430     0.0300 hn         1 04O       0.398000
     24 H26          4.6790     1.3700     1.7280 ha         1 04O       0.111500
     25 H31         -2.8950     1.0230    -1.4080 h1         1 04O       0.075700
     26 HO31        -3.6570     3.0230    -0.2480 ho         1 04O       0.512000
     27 H35          2.0100     1.2240     0.2250 hc         1 04O       0.066200
     28 H35A         1.8700    -0.0690    -0.9540 hc         1 04O       0.066200
     29 H36          6.8960     2.0270     0.8160 ha         1 04O       0.111000
     30 H41         -1.9510     0.5720     1.4720 h1         1 04O       0.052700
     31 H45          2.8450    -1.6840     0.7050 hc         1 04O       0.052700
     32 H45A         2.9470    -0.4040     1.8990 hc         1 04O       0.052700
     33 H46          7.8370     0.8390    -1.1640 ha         1 04O       0.111000
     34 H51         -2.2080    -1.3040    -0.9570 h1         1 04O       0.076700
     35 H56          6.5500    -1.0110    -2.2320 ha         1 04O       0.111000
     36 H61         -1.2380    -1.9080     1.8980 h1         1 04O       0.058700
     37 H61A        -1.3180    -3.0470     0.5280 h1         1 04O       0.058700
     38 H66          4.3320    -1.6730    -1.3250 ha         1 04O       0.111500
     39 HBJ          0.3830    -0.0040     1.7550 h2         1 04O       0.024700
     40 H2          -4.8360    -1.9700    -1.3370 ho         1 04O       0.453000
     41 C35          1.8360     0.1470     0.1210 c3         1 04O      -0.065400
     42 C45          2.9910    -0.6030     0.8200 c3         1 04O      -0.027100
@<TRIPOS>BOND
     1     1     2 1   
     2     1     4 1   
     3     1    14 1   
     4     1    20 1   
     5     2    40 1   
     6     3     6 ar  
     7     3    18 ar  
     8     3    42 1   
     9     4     5 1   
    10     4     7 1   
    11     4    21 1   
    12     5    22 1   
    13     5    23 1   
    14     6     9 ar  
    15     6    24 1   
    16     7     8 1   
    17     7    10 1   
    18     7    25 1   
    19     8    26 1   
    20     9    12 ar  
    21     9    29 1   
    22    10    11 1   
    23    10    13 1   
    24    10    30 1   
    25    11    19 1   
    26    12    15 ar  
    27    12    33 1   
    28    13    14 1   
    29    13    16 1   
    30    13    34 1   
    31    15    18 ar  
    32    15    35 1   
    33    16    17 1   
    34    16    36 1   
    35    16    37 1   
    36    17    19 1   
    37    18    38 1   
    38    19    39 1   
    39    19    41 1   
    40    27    41 1   
    41    28    41 1   
    42    31    42 1   
    43    32    42 1   
    44    41    42 1   
@<TRIPOS>SUBSTRUCTURE
     1 04O         1 TEMP              0 ****  ****    0 ROOT
