@<TRIPOS>MOLECULE
04P
   26    26     1     0     0
SMALL
No Charge or Current Charge


@<TRIPOS>ATOM
      1 C20          2.7590    -0.3530     0.2180 c3         1 04P       0.171600
      2 C27          1.3370     0.1450    -0.1580 c6         1 04P      -0.097700
      3 C32          0.2570    -0.3770     0.8370 c6         1 04P       0.220800
      4 C33          1.2940     1.6970    -0.2430 c6         1 04P      -0.074400
      5 N37         -1.1030     0.1420     0.4990 nh         1 04P      -0.741600
      6 C38         -0.1420     2.1970    -0.5330 c6         1 04P      -0.106400
      7 C40         -1.1410     1.6290     0.5040 c6         1 04P       0.209800
      8 C41         -1.9090    -0.5390    -0.3490 c2         1 04P       0.783100
      9 N42         -1.4960    -1.3220    -1.2320 n2         1 04P      -0.879100
     10 N43         -3.1720    -0.4830     0.0210 nv         1 04P      -1.060200
     11 H201         3.4770     0.0780    -0.4910 h1         1 04P       0.013700
     12 H202         3.0120     0.0240     1.2180 h1         1 04P       0.013700
     13 H27          1.1210    -0.2620    -1.1540 hc         1 04P       0.081700
     14 H321         0.2580    -1.4770     0.8610 h1         1 04P       0.067200
     15 H322         0.5320    -0.0430     1.8490 h1         1 04P       0.067200
     16 H331         1.6470     2.1320     0.7030 hc         1 04P       0.037700
     17 H332         1.9780     2.0530    -1.0260 hc         1 04P       0.037700
     18 H381        -0.1690     3.2940    -0.5110 hc         1 04P       0.050200
     19 H382        -0.4470     1.8950    -1.5450 hc         1 04P       0.050200
     20 H401        -2.1540     2.0040     0.2930 h1         1 04P       0.049700
     21 H402        -0.8620     2.0040     1.5000 h1         1 04P       0.049700
     22 H42         -2.3210    -1.7420    -1.6690 hn         1 04P       0.373400
     23 H431        -3.2260    -0.0300     0.9220 hn         1 04P       0.448000
     24 H432        -3.6310    -1.3820    -0.0050 hn         1 04P       0.448000
     25 OXT          2.8530    -1.7810     0.1930 oh         1 04P      -0.653000
     26 HXT          3.7850    -2.0090     0.4040 ho         1 04P       0.439000
@<TRIPOS>BOND
     1     1     2 1   
     2     1    11 1   
     3     1    12 1   
     4     1    25 1   
     5     2     3 1   
     6     2     4 1   
     7     2    13 1   
     8     3     5 1   
     9     3    14 1   
    10     3    15 1   
    11     4     6 1   
    12     4    16 1   
    13     4    17 1   
    14     5     7 1   
    15     5     8 1   
    16     6     7 1   
    17     6    18 1   
    18     6    19 1   
    19     7    20 1   
    20     7    21 1   
    21     8     9 2   
    22     8    10 1   
    23     9    22 1   
    24    10    23 1   
    25    10    24 1   
    26    25    26 1   
@<TRIPOS>SUBSTRUCTURE
     1 04P         1 TEMP              0 ****  ****    0 ROOT
