@<TRIPOS>MOLECULE
04P
   26    26     1     0     0
SMALL
bcc


@<TRIPOS>ATOM
      1 C20          2.7520    -0.2820     0.0990 c3         1 04P       0.148400
      2 C27          1.3230     0.1390    -0.1890 c6         1 04P      -0.097700
      3 C32          0.3510    -0.3920     0.8670 c6         1 04P       0.220800
      4 C33          1.2350     1.6650    -0.2580 c6         1 04P      -0.074400
      5 N37         -1.0060     0.0770     0.6520 nh         1 04P      -0.741600
      6 C38         -0.2050     2.1420    -0.4120 c6         1 04P      -0.106400
      7 C40         -1.0880     1.5300     0.6690 c6         1 04P       0.209800
      8 C41         -1.8260    -0.6730    -0.1620 c2         1 04P       0.783100
      9 N42         -1.4180    -1.7840    -0.6560 n2         1 04P      -0.879100
     10 N43         -3.0730    -0.1230    -0.3950 nv         1 04P      -0.949800
     11 H201         3.4150     0.1710    -0.6520 h1         1 04P       0.013700
     12 H202         3.0540     0.1290     1.0730 h1         1 04P       0.013700
     13 H27          1.0250    -0.2730    -1.1610 hc         1 04P       0.081700
     14 H321         0.3520    -1.4780     0.8830 h1         1 04P       0.067200
     15 H322         0.6710    -0.0450     1.8570 h1         1 04P       0.067200
     16 H331         1.6530     2.0920     0.6620 hc         1 04P       0.037700
     17 H332         1.8500     2.0390    -1.0810 hc         1 04P       0.037700
     18 H381        -0.2550     3.2320    -0.3540 hc         1 04P       0.050200
     19 H382        -0.5940     1.8570    -1.3950 hc         1 04P       0.050200
     20 H401        -2.1150     1.8700     0.5620 h1         1 04P       0.049700
     21 H402        -0.7530     1.8710     1.6530 h1         1 04P       0.049700
     22 H42         -2.1790    -2.2620    -1.1270 hn         1 04P       0.373400
     23 H431        -3.4970     0.3770     0.3700 hn         1 04P       0.392800
     24 H432        -3.7280    -0.7620    -0.8170 hn         1 04P       0.392800
     25 OXT          2.8490    -1.6900     0.0830 oh         1 04P      -0.590800
     26 HXT          3.7450    -1.9320     0.3330 ho         1 04P       0.400000
@<TRIPOS>BOND
     1     1     2 1   
     2     1    11 1   
     3     1    12 1   
     4     1    25 1   
     5     2     3 1   
     6     2     4 1   
     7     2    13 1   
     8     3     5 1   
     9     3    14 1   
    10     3    15 1   
    11     4     6 1   
    12     4    16 1   
    13     4    17 1   
    14     5     7 1   
    15     5     8 1   
    16     6     7 1   
    17     6    18 1   
    18     6    19 1   
    19     7    20 1   
    20     7    21 1   
    21     8     9 2   
    22     8    10 1   
    23     9    22 1   
    24    10    23 1   
    25    10    24 1   
    26    25    26 1   
@<TRIPOS>SUBSTRUCTURE
     1 04P         1 TEMP              0 ****  ****    0 ROOT
