@<TRIPOS>MOLECULE
04Q
   22    22     1     0     0
SMALL
No Charge or Current Charge


@<TRIPOS>ATOM
      1 N5           0.9340     0.0990     0.1850 n7         1 04Q      -0.857400
      2 C9          -0.1380     0.1240     1.1950 c3         1 04Q       0.206100
      3 C10          2.3310     0.1280     0.7320 c3         1 04Q       0.015800
      4 C16         -1.5110     0.0490     0.5370 ca         1 04Q      -0.062300
      5 C17          3.4830    -0.0040    -0.3370 c          1 04Q       0.719000
      6 C21         -2.1650    -1.1910     0.3910 ca         1 04Q      -0.099500
      7 C22         -2.1430     1.2210     0.0740 ca         1 04Q      -0.099500
      8 O23          4.2580     0.9330    -0.4830 o          1 04Q      -0.734500
      9 O24          3.5440    -1.0330    -1.0000 o          1 04Q      -0.734500
     10 C28         -3.4350    -1.2580    -0.2110 ca         1 04Q      -0.123500
     11 C29         -3.4120     1.1540    -0.5280 ca         1 04Q      -0.123500
     12 C34         -4.0580    -0.0850    -0.6700 ca         1 04Q      -0.129000
     13 H91C        -0.0270    -0.7220     1.8870 h1         1 04Q       0.018200
     14 H92C        -0.0760     1.0440     1.7920 h1         1 04Q       0.018200
     15 H101         2.4880     1.0610     1.2890 h1         1 04Q       0.008700
     16 H102         2.4620    -0.6960     1.4460 h1         1 04Q       0.008700
     17 H21         -1.6890    -2.1030     0.7440 ha         1 04Q       0.121000
     18 H22         -1.6460     2.1830     0.1790 ha         1 04Q       0.121000
     19 H28         -3.9340    -2.2180    -0.3200 ha         1 04Q       0.098500
     20 H29         -3.8930     2.0620    -0.8830 ha         1 04Q       0.098500
     21 H34         -5.0400    -0.1370    -1.1350 ha         1 04Q       0.095000
     22 H2           0.8250    -0.7640    -0.3660 hn         1 04Q       0.435000
@<TRIPOS>BOND
     1     1     2 1   
     2     1     3 1   
     3     1    22 1   
     4     2     4 1   
     5     2    13 1   
     6     2    14 1   
     7     3     5 1   
     8     3    15 1   
     9     3    16 1   
    10     4     6 ar  
    11     4     7 ar  
    12     5     8 1   
    13     5     9 1   
    14     6    10 ar  
    15     6    17 1   
    16     7    11 ar  
    17     7    18 1   
    18    10    12 ar  
    19    10    19 1   
    20    11    12 ar  
    21    11    20 1   
    22    12    21 1   
@<TRIPOS>SUBSTRUCTURE
     1 04Q         1 TEMP              0 ****  ****    0 ROOT
