@<TRIPOS>MOLECULE
04Q
   22    22     1     0     0
SMALL
abcg2


@<TRIPOS>ATOM
      1 N5           0.9270     0.2680     0.1890 n7         1 04Q      -0.857400
      2 C9          -0.0970    -0.1620     1.1150 c3         1 04Q       0.206100
      3 C10          2.2510     0.2650     0.7710 c3         1 04Q       0.015800
      4 C16         -1.4690    -0.1330     0.4950 ca         1 04Q      -0.062300
      5 C17          3.3710     0.3180    -0.2840 c          1 04Q       0.719000
      6 C21         -2.3570    -1.1880     0.6810 ca         1 04Q      -0.099500
      7 C22         -1.8850     0.9620    -0.2610 ca         1 04Q      -0.099500
      8 O23          4.4950     0.6610     0.1300 o          1 04Q      -0.734500
      9 O24          3.0740    -0.0250    -1.4460 o          1 04Q      -0.734500
     10 C28         -3.6350    -1.1510     0.1350 ca         1 04Q      -0.123500
     11 C29         -3.1590     1.0030    -0.8090 ca         1 04Q      -0.123500
     12 C34         -4.0400    -0.0550    -0.6130 ca         1 04Q      -0.129000
     13 H91C         0.0930    -1.1660     1.5300 h1         1 04Q       0.018200
     14 H92C        -0.0830     0.5180     1.9750 h1         1 04Q       0.018200
     15 H101         2.3540     1.1140     1.4540 h1         1 04Q       0.008700
     16 H102         2.4350    -0.6330     1.3890 h1         1 04Q       0.008700
     17 H21         -2.0470    -2.0520     1.2590 ha         1 04Q       0.121000
     18 H22         -1.2000     1.7860    -0.4220 ha         1 04Q       0.121000
     19 H28         -4.3120    -1.9820     0.2910 ha         1 04Q       0.098500
     20 H29         -3.4660     1.8620    -1.3920 ha         1 04Q       0.098500
     21 H34         -5.0320    -0.0250    -1.0440 ha         1 04Q       0.095000
     22 H2           0.9380    -0.3380    -0.6230 hn         1 04Q       0.435000
@<TRIPOS>BOND
     1     1     2 1   
     2     1     3 1   
     3     1    22 1   
     4     2     4 1   
     5     2    13 1   
     6     2    14 1   
     7     3     5 1   
     8     3    15 1   
     9     3    16 1   
    10     4     6 ar  
    11     4     7 ar  
    12     5     8 1   
    13     5     9 1   
    14     6    10 ar  
    15     6    17 1   
    16     7    11 ar  
    17     7    18 1   
    18    10    12 ar  
    19    10    19 1   
    20    11    12 ar  
    21    11    20 1   
    22    12    21 1   
@<TRIPOS>SUBSTRUCTURE
     1 04Q         1 TEMP              0 ****  ****    0 ROOT
