@<TRIPOS>MOLECULE
04S
   16    16     1     0     0
SMALL
abcg2


@<TRIPOS>ATOM
      1 N29          2.0310    -0.0120     0.3310 n8         1 04S      -0.983200
      2 C30          0.7900     0.0630    -0.4280 c5         1 04S       0.149500
      3 C31         -0.0950    -1.1850    -0.2140 c5         1 04S       0.155800
      4 N32         -1.3180    -0.6910     0.4110 n7         1 04S      -0.855400
      5 C33         -1.5000     0.6710    -0.0680 c5         1 04S       0.153800
      6 C34         -0.0900     1.2280     0.0410 c5         1 04S      -0.085400
      7 HN29         2.6210    -0.7370    -0.0610 hn         1 04S       0.391000
      8 H30          0.9700     0.1760    -1.5060 h1         1 04S       0.012700
      9 H31         -0.2810    -1.6760    -1.1770 h1         1 04S       0.039200
     10 H31A         0.4050    -1.9140     0.4310 h1         1 04S       0.039200
     11 HN32        -2.1110    -1.2770     0.1860 hn         1 04S       0.410000
     12 H33         -1.8480     0.7250    -1.1110 h1         1 04S       0.033700
     13 H33A        -2.2220     1.2130     0.5460 h1         1 04S       0.033700
     14 H34          0.1410     1.4530     1.0860 hc         1 04S       0.058200
     15 H34A         0.0590     2.1350    -0.5450 hc         1 04S       0.058200
     16 H2           2.5500     0.8480     0.2000 hn         1 04S       0.391000
@<TRIPOS>BOND
     1     1     2 1   
     2     1     7 1   
     3     1    16 1   
     4     2     3 1   
     5     2     6 1   
     6     2     8 1   
     7     3     4 1   
     8     3     9 1   
     9     3    10 1   
    10     4     5 1   
    11     4    11 1   
    12     5     6 1   
    13     5    12 1   
    14     5    13 1   
    15     6    14 1   
    16     6    15 1   
@<TRIPOS>SUBSTRUCTURE
     1 04S         1 TEMP              0 ****  ****    0 ROOT
