@<TRIPOS>MOLECULE
04S
   16    16     1     0     0
SMALL
No Charge or Current Charge


@<TRIPOS>ATOM
      1 N29          2.1590     0.0240    -0.0290 n8         1 04S      -0.983200
      2 C30          0.7310     0.0300    -0.3960 c5         1 04S       0.149500
      3 C31         -0.0980    -1.1990     0.1020 c5         1 04S       0.155800
      4 N32         -1.5270    -0.7660     0.0720 n7         1 04S      -0.855400
      5 C33         -1.5100     0.7150    -0.0810 c5         1 04S       0.153800
      6 C34         -0.0720     1.1530     0.2950 c5         1 04S      -0.085400
      7 HN29         2.6360    -0.7210    -0.5510 hn         1 04S       0.391000
      8 H30          0.6710     0.1250    -1.4890 h1         1 04S       0.012700
      9 H31          0.0700    -2.0920    -0.5150 h1         1 04S       0.039200
     10 H31A         0.1840    -1.4530     1.1340 h1         1 04S       0.039200
     11 HN32        -1.9940    -1.1710    -0.7510 hn         1 04S       0.410000
     12 H33         -1.7240     0.9830    -1.1260 h1         1 04S       0.033700
     13 H33A        -2.2710     1.1980     0.5480 h1         1 04S       0.033700
     14 H34          0.0760     1.1620     1.3810 hc         1 04S       0.058200
     15 H34A         0.1720     2.1500    -0.0870 hc         1 04S       0.058200
     16 H2           2.5990     0.8810    -0.3840 hn         1 04S       0.391000
@<TRIPOS>BOND
     1     1     2 1   
     2     1     7 1   
     3     1    16 1   
     4     2     3 1   
     5     2     6 1   
     6     2     8 1   
     7     3     4 1   
     8     3     9 1   
     9     3    10 1   
    10     4     5 1   
    11     4    11 1   
    12     5     6 1   
    13     5    12 1   
    14     5    13 1   
    15     6    14 1   
    16     6    15 1   
@<TRIPOS>SUBSTRUCTURE
     1 04S         1 TEMP              0 ****  ****    0 ROOT
