@<TRIPOS>MOLECULE
04T
   39    40     1     0     0
SMALL
abcg2


@<TRIPOS>ATOM
      1 C1           3.2500    -0.3970     1.4890 ca         1 04T       0.059000
      2 C2           1.9950    -0.3090     2.0370 ca         1 04T      -0.225000
      3 C3           0.8840     0.1220     1.2860 ca         1 04T       0.440000
      4 C4           1.1400     0.5150    -0.0430 ca         1 04T      -0.269200
      5 C5           2.3940     0.3820    -0.6190 ca         1 04T       0.083000
      6 C6           3.4460    -0.0750     0.1450 ca         1 04T      -0.340500
      7 S7           5.0500    -0.2240    -0.5800 sy         1 04T       1.073500
      8 O8           5.1250     0.6980    -1.7110 o          1 04T      -0.521000
      9 O9           6.0410    -0.1160     0.4880 o          1 04T      -0.521000
     10 C10          5.0910    -1.8860    -1.2090 c3         1 04T      -0.338100
     11 N11          0.1340     1.1770    -0.8490 no         1 04T       0.703200
     12 O12          0.0900     0.9140    -2.0290 o          1 04T      -0.392500
     13 O13         -0.5800     1.9820    -0.3020 o          1 04T      -0.392500
     14 N14         -0.3380     0.1220     1.8750 nu         1 04T      -0.952000
     15 C15         -1.5700    -0.1100     1.2350 ca         1 04T       0.231000
     16 C16         -2.7060     0.5590     1.6680 ca         1 04T      -0.092000
     17 C17         -3.9440     0.3260     1.0890 ca         1 04T      -0.129000
     18 C18         -4.0600    -0.5830     0.0360 ca         1 04T      -0.013000
     19 C19         -2.9150    -1.2580    -0.3920 ca         1 04T      -0.129000
     20 C20         -1.6890    -1.0380     0.2050 ca         1 04T      -0.092000
     21 N21         -5.2530    -0.8830    -0.6260 ns         1 04T      -0.147000
     22 C22         -6.4830    -0.3240    -0.4880 c          1 04T       0.610100
     23 C23         -7.5180    -0.8680    -1.4400 c3         1 04T      -0.182100
     24 O24         -6.7420     0.5590     0.3100 o          1 04T      -0.577100
     25 H1           4.0720    -0.7370     2.1040 ha         1 04T       0.143000
     26 H2           1.8430    -0.6000     3.0690 ha         1 04T       0.127000
     27 H5           2.5440     0.6810    -1.6480 ha         1 04T       0.165000
     28 H10          4.3120    -2.0110    -1.9580 h1         1 04T       0.103367
     29 H10A         6.0710    -2.0380    -1.6590 h1         1 04T       0.103367
     30 H10B         4.9450    -2.5860    -0.3890 h1         1 04T       0.103367
     31 HN14        -0.3350    -0.0070     2.8750 hn         1 04T       0.502000
     32 H16         -2.6290     1.2840     2.4690 ha         1 04T       0.124000
     33 H17         -4.8010     0.8660     1.4550 ha         1 04T       0.136000
     34 H19         -2.9840    -1.9820    -1.1960 ha         1 04T       0.136000
     35 H20         -0.8330    -1.6110    -0.1290 ha         1 04T       0.124000
     36 HN21        -5.1720    -1.6030    -1.3280 hn         1 04T       0.151000
     37 H23         -7.2430    -1.8210    -1.8870 hc         1 04T       0.065367
     38 H23A        -8.4670    -0.9840    -0.9200 hc         1 04T       0.065367
     39 H23B        -7.6700    -0.1490    -2.2470 hc         1 04T       0.065367
@<TRIPOS>BOND
     1     1     2 ar  
     2     1     6 ar  
     3     1    25 1   
     4     2     3 ar  
     5     2    26 1   
     6     3     4 ar  
     7     3    14 1   
     8     4     5 ar  
     9     4    11 1   
    10     5     6 ar  
    11     5    27 1   
    12     6     7 1   
    13     7     8 2   
    14     7     9 2   
    15     7    10 1   
    16    10    28 1   
    17    10    29 1   
    18    10    30 1   
    19    11    12 1   
    20    11    13 1   
    21    14    15 1   
    22    14    31 1   
    23    15    16 ar  
    24    15    20 ar  
    25    16    17 ar  
    26    16    32 1   
    27    17    18 ar  
    28    17    33 1   
    29    18    19 ar  
    30    18    21 1   
    31    19    20 ar  
    32    19    34 1   
    33    20    35 1   
    34    21    22 1   
    35    21    36 1   
    36    22    23 1   
    37    22    24 2   
    38    23    37 1   
    39    23    38 1   
    40    23    39 1   
@<TRIPOS>SUBSTRUCTURE
     1 04T         1 TEMP              0 ****  ****    0 ROOT
