@<TRIPOS>MOLECULE
04T
   39    40     1     0     0
SMALL
No Charge or Current Charge


@<TRIPOS>ATOM
      1 C1           3.2270    -0.5680     1.5010 ca         1 04T       0.059000
      2 C2           1.9080    -0.4020     1.9470 ca         1 04T      -0.225000
      3 C3           0.9440     0.2000     1.1290 ca         1 04T       0.440000
      4 C4           1.3130     0.6760    -0.1400 ca         1 04T      -0.269200
      5 C5           2.6330     0.5090    -0.6030 ca         1 04T       0.083000
      6 C6           3.5890    -0.1160     0.2200 ca         1 04T      -0.340500
      7 S7           5.2740    -0.3340    -0.3680 sy         1 04T       1.073500
      8 O8           5.5350     0.6490    -1.4270 o          1 04T      -0.521000
      9 O9           6.1660    -0.4660     0.7910 o          1 04T      -0.521000
     10 C10          5.2190    -1.9400    -1.1590 c3         1 04T      -0.338100
     11 N11          0.3540     1.3980    -0.9910 no         1 04T       0.703200
     12 O12          0.2990     1.0660    -2.1810 o          1 04T      -0.392500
     13 O13         -0.1190     2.4540    -0.5530 o          1 04T      -0.392500
     14 N14         -0.3530     0.2890     1.6280 nu         1 04T      -0.952000
     15 C15         -1.6090     0.0140     1.0750 ca         1 04T       0.231000
     16 C16         -2.7650     0.5080     1.7010 ca         1 04T      -0.092000
     17 C17         -4.0400     0.2390     1.1690 ca         1 04T      -0.129000
     18 C18         -4.1750    -0.5410    -0.0000 ca         1 04T      -0.013000
     19 C19         -3.0150    -1.0470    -0.6150 ca         1 04T      -0.129000
     20 C20         -1.7420    -0.7760    -0.0800 ca         1 04T      -0.092000
     21 N21         -5.4280    -0.8570    -0.5980 ns         1 04T      -0.147000
     22 C22         -6.7340    -0.5160    -0.2710 c          1 04T       0.610100
     23 C23         -7.7820    -1.0990    -1.2160 c3         1 04T      -0.182100
     24 O24         -7.0550     0.1860     0.6800 o          1 04T      -0.577100
     25 H1           3.9560    -1.0520     2.1510 ha         1 04T       0.143000
     26 H2           1.6300    -0.7680     2.9310 ha         1 04T       0.127000
     27 H5           2.9130     0.8780    -1.5910 ha         1 04T       0.165000
     28 H10          4.4830    -1.8970    -1.9680 h1         1 04T       0.103367
     29 H10A         6.2160    -2.1600    -1.5530 h1         1 04T       0.103367
     30 H10B         4.9250    -2.6800    -0.4080 h1         1 04T       0.103367
     31 HN14        -0.3770     0.4780     2.6310 hn         1 04T       0.502000
     32 H16         -2.6780     1.1120     2.6000 ha         1 04T       0.124000
     33 H17         -4.9050     0.6460     1.6840 ha         1 04T       0.136000
     34 H19         -3.0950    -1.6590    -1.5110 ha         1 04T       0.136000
     35 H20         -0.8630    -1.1930    -0.5620 ha         1 04T       0.124000
     36 HN21        -5.3510    -1.4430    -1.4190 hn         1 04T       0.151000
     37 H23         -7.6590    -2.1870    -1.2570 hc         1 04T       0.065367
     38 H23A        -8.8040    -0.8170    -0.9390 hc         1 04T       0.065367
     39 H23B        -7.5430    -0.7980    -2.2420 hc         1 04T       0.065367
@<TRIPOS>BOND
     1     1     2 ar  
     2     1     6 ar  
     3     1    25 1   
     4     2     3 ar  
     5     2    26 1   
     6     3     4 ar  
     7     3    14 1   
     8     4     5 ar  
     9     4    11 1   
    10     5     6 ar  
    11     5    27 1   
    12     6     7 1   
    13     7     8 2   
    14     7     9 2   
    15     7    10 1   
    16    10    28 1   
    17    10    29 1   
    18    10    30 1   
    19    11    12 1   
    20    11    13 1   
    21    14    15 1   
    22    14    31 1   
    23    15    16 ar  
    24    15    20 ar  
    25    16    17 ar  
    26    16    32 1   
    27    17    18 ar  
    28    17    33 1   
    29    18    19 ar  
    30    18    21 1   
    31    19    20 ar  
    32    19    34 1   
    33    20    35 1   
    34    21    22 1   
    35    21    36 1   
    36    22    23 1   
    37    22    24 2   
    38    23    37 1   
    39    23    38 1   
    40    23    39 1   
@<TRIPOS>SUBSTRUCTURE
     1 04T         1 TEMP              0 ****  ****    0 ROOT
