@<TRIPOS>MOLECULE
04U
   19    19     1     0     0
SMALL
bcc


@<TRIPOS>ATOM
      1 O9          -2.7940     0.5110     1.3130 o          1 04U      -0.798300
      2 C8          -2.2770    -0.2730     0.4970 c          1 04U       0.941600
      3 C10         -1.2310     0.3200    -0.4590 c5         1 04U       0.025500
      4 C25         -0.0930    -0.6360    -0.8600 c5         1 04U      -0.060400
      5 C24          1.1580     0.2560    -0.8970 c5         1 04U       0.127500
      6 N26          1.9380     0.0000     0.3530 n2         1 04U      -0.004200
      7 N27          2.9640    -0.5170     0.4160 n1         1 04U       0.203000
      8 N28          4.0640    -0.8950     0.5680 n2         1 04U      -0.277400
      9 C23          0.6050     1.6670    -0.7820 c5         1 04U       0.154800
     10 N11         -0.5190     1.4620     0.0940 n7         1 04U      -0.788200
     11 H10         -1.7670     0.5990    -1.3830 h1         1 04U       0.028700
     12 H251         0.0180    -1.4630    -0.1610 hc         1 04U       0.080700
     13 H252        -0.2430    -1.0710    -1.8460 hc         1 04U       0.080700
     14 H24          1.8230     0.0900    -1.7430 h1         1 04U       0.072700
     15 H231         1.3250     2.3880    -0.3910 h1         1 04U       0.054200
     16 H232         0.3410     1.9770    -1.8060 h1         1 04U       0.054200
     17 H28          4.1580    -1.9040     0.7240 hn         1 04U       0.492400
     18 OXT         -2.5440    -1.4800     0.3340 o          1 04U      -0.798300
     19 H2          -1.1070     2.2790     0.1830 hn         1 04U       0.407800
@<TRIPOS>BOND
     1     1     2 1   
     2     2     3 1   
     3     2    18 1   
     4     3     4 1   
     5     3    10 1   
     6     3    11 1   
     7     4     5 1   
     8     4    12 1   
     9     4    13 1   
    10     5     6 1   
    11     5     9 1   
    12     5    14 1   
    13     6     7 2   
    14     7     8 2   
    15     8    17 1   
    16     9    10 1   
    17     9    15 1   
    18     9    16 1   
    19    10    19 1   
@<TRIPOS>SUBSTRUCTURE
     1 04U         1 TEMP              0 ****  ****    0 ROOT
