@<TRIPOS>MOLECULE
04U
   19    19     1     0     0
SMALL
No Charge or Current Charge


@<TRIPOS>ATOM
      1 O9          -3.6720     0.4360    -0.3540 o          1 04U      -0.693000
      2 C8          -2.6730    -0.1770     0.0020 c          1 04U       0.731000
      3 C10         -1.2560     0.3280    -0.5190 c5         1 04U       0.025500
      4 C25         -0.1080    -0.6530    -0.1530 c5         1 04U      -0.060400
      5 C24          1.1060     0.1750    -0.6570 c5         1 04U       0.127500
      6 N26          2.3180    -0.2430     0.0840 n2         1 04U      -0.004200
      7 N27          3.0980    -1.0050    -0.5060 n1         1 04U       0.203000
      8 N28          4.2500    -0.8330    -0.0850 n2         1 04U      -0.277400
      9 C23          0.7270     1.6340    -0.2330 c5         1 04U       0.154800
     10 N11         -0.7370     1.6130     0.0670 n7         1 04U      -0.843400
     11 H10         -1.3300     0.4220    -1.6120 h1         1 04U       0.028700
     12 H251        -0.0660    -0.8370     0.9280 hc         1 04U       0.080700
     13 H252        -0.1970    -1.6220    -0.6570 hc         1 04U       0.080700
     14 H24          1.2340     0.0970    -1.7460 h1         1 04U       0.072700
     15 H231         1.2880     1.9710     0.6510 h1         1 04U       0.054200
     16 H232         0.9530     2.3350    -1.0490 h1         1 04U       0.054200
     17 H28          4.8500    -1.6050    -0.4030 hn         1 04U       0.492400
     18 OXT         -2.7490    -1.1580     0.7320 o          1 04U      -0.693000
     19 H2          -1.2180     2.4320    -0.3370 hn         1 04U       0.463000
@<TRIPOS>BOND
     1     1     2 1   
     2     2     3 1   
     3     2    18 1   
     4     3     4 1   
     5     3    10 1   
     6     3    11 1   
     7     4     5 1   
     8     4    12 1   
     9     4    13 1   
    10     5     6 1   
    11     5     9 1   
    12     5    14 1   
    13     6     7 2   
    14     7     8 2   
    15     8    17 1   
    16     9    10 1   
    17     9    15 1   
    18     9    16 1   
    19    10    19 1   
@<TRIPOS>SUBSTRUCTURE
     1 04U         1 TEMP              0 ****  ****    0 ROOT
