@<TRIPOS>MOLECULE
04V
   18    18     1     0     0
SMALL
No Charge or Current Charge


@<TRIPOS>ATOM
      1 N7          -0.8460    -1.0270    -0.6120 n7         1 04V      -0.824400
      2 C6          -2.1440    -0.7060     0.0400 c5         1 04V       0.139800
      3 C5          -2.2260     0.8390     0.0220 c5         1 04V      -0.111400
      4 C4          -0.7670     1.1840     0.3940 c5         1 04V      -0.108400
      5 C3          -0.0120     0.2330    -0.5750 c5         1 04V       0.126200
      6 C1           1.4230    -0.0610    -0.0350 c2         1 04V       0.612600
      7 N2           1.6770    -1.1050     0.6650 n2         1 04V      -0.837100
      8 OXT          2.3930     0.8020    -0.3310 oh         1 04V      -0.663600
      9 H61C        -2.9910    -1.1750    -0.4810 h1         1 04V       0.052200
     10 H62C        -2.1460    -1.0730     1.0760 h1         1 04V       0.052200
     11 H3           0.0410     0.6800    -1.5780 h1         1 04V       0.087700
     12 H51C        -2.4970     1.2200    -0.9700 hc         1 04V       0.048700
     13 H52C        -2.9540     1.2300     0.7420 hc         1 04V       0.048700
     14 H41C        -0.5210     2.2390     0.2250 hc         1 04V       0.054700
     15 H42C        -0.5550     0.9570     1.4470 hc         1 04V       0.054700
     16 H21N         2.6680    -1.1400     0.9310 hn         1 04V       0.380400
     17 HXT          3.2020     0.4500     0.0850 ho         1 04V       0.462000
     18 H2          -0.3520    -1.7290    -0.0370 hn         1 04V       0.428000
@<TRIPOS>BOND
     1     1     2 1   
     2     1     5 1   
     3     1    18 1   
     4     2     3 1   
     5     2     9 1   
     6     2    10 1   
     7     3     4 1   
     8     3    12 1   
     9     3    13 1   
    10     4     5 1   
    11     4    14 1   
    12     4    15 1   
    13     5     6 1   
    14     5    11 1   
    15     6     7 2   
    16     6     8 1   
    17     7    16 1   
    18     8    17 1   
@<TRIPOS>SUBSTRUCTURE
     1 04V         1 TEMP              0 ****  ****    0 ROOT
