@<TRIPOS>MOLECULE
04V
   18    18     1     0     0
SMALL
bcc


@<TRIPOS>ATOM
      1 N7          -0.7970    -1.1500    -0.2150 n7         1 04V      -0.769200
      2 C6          -2.1810    -0.6790    -0.2010 c5         1 04V       0.139800
      3 C5          -2.1700     0.8190     0.2010 c5         1 04V      -0.111400
      4 C4          -0.6840     1.1640     0.3510 c5         1 04V      -0.108400
      5 C3           0.0090     0.0340    -0.4380 c5         1 04V       0.126200
      6 C1           1.4410    -0.1500    -0.0280 c2         1 04V       0.612600
      7 N2           1.8080    -1.1270     0.6840 n2         1 04V      -0.837100
      8 OXT          2.1950     0.8620    -0.4820 oh         1 04V      -0.624600
      9 H61C        -2.6160    -0.7930    -1.1970 h1         1 04V       0.052200
     10 H62C        -2.7740    -1.2930     0.4760 h1         1 04V       0.052200
     11 H3          -0.0170     0.2850    -1.5050 h1         1 04V       0.087700
     12 H51C        -2.6350     1.4280    -0.5750 hc         1 04V       0.048700
     13 H52C        -2.7200     1.0010     1.1230 hc         1 04V       0.048700
     14 H41C        -0.4360     2.1590    -0.0180 hc         1 04V       0.054700
     15 H42C        -0.3790     1.1120     1.3990 hc         1 04V       0.054700
     16 H21N         2.7960    -1.1010     0.9200 hn         1 04V       0.380400
     17 HXT          3.1090     0.7730    -0.1810 ho         1 04V       0.423000
     18 H2          -0.5550    -1.5270     0.6940 hn         1 04V       0.372800
@<TRIPOS>BOND
     1     1     2 1   
     2     1     5 1   
     3     1    18 1   
     4     2     3 1   
     5     2     9 1   
     6     2    10 1   
     7     3     4 1   
     8     3    12 1   
     9     3    13 1   
    10     4     5 1   
    11     4    14 1   
    12     4    15 1   
    13     5     6 1   
    14     5    11 1   
    15     6     7 2   
    16     6     8 1   
    17     7    16 1   
    18     8    17 1   
@<TRIPOS>SUBSTRUCTURE
     1 04V         1 TEMP              0 ****  ****    0 ROOT
