@<TRIPOS>MOLECULE
04W
   61    62     1     0     0
SMALL
bcc


@<TRIPOS>ATOM
      1 CAA         14.2740    -1.2660     1.0110 c3         1 04W      -0.088100
      2 OAB         -6.6310     0.6910    -2.9330 o          1 04W      -0.803800
      3 OAC         -9.4170    -0.1690     2.6700 o          1 04W      -0.247000
      4 OAD         -4.9780    -0.7660    -2.5660 o          1 04W      -0.803800
      5 OAE        -10.0320    -0.2060     0.6290 o          1 04W      -0.247000
      6 CAF         -0.5620     2.3160    -1.7660 ca         1 04W      -0.099000
      7 CAG         -1.7190     1.9680    -1.0950 ca         1 04W      -0.116000
      8 CAH          0.6670     1.7540    -1.4310 ca         1 04W      -0.216000
      9 CAI         -6.8010     0.0670     2.0230 ca         1 04W      -0.050000
     10 CAJ         -5.4880     0.1910     1.6150 ca         1 04W      -0.271000
     11 CAK         -0.4410     0.4580     0.2720 ca         1 04W      -0.153000
     12 CAL         -7.4880    -0.0160    -0.2900 ca         1 04W      -0.020000
     13 CAM         13.1410    -0.5320     0.3060 c3         1 04W      -0.075400
     14 CAN         11.7620    -0.9860     0.7700 c3         1 04W      -0.075400
     15 CAO         10.6200    -0.2580     0.0720 c3         1 04W      -0.074400
     16 CAP          9.2430    -0.7120     0.5410 c3         1 04W      -0.074400
     17 CAQ          8.0990     0.0180    -0.1500 c3         1 04W      -0.074400
     18 CAR          6.7240    -0.4310     0.3280 c3         1 04W      -0.074400
     19 CAS          5.5820     0.3060    -0.3590 c3         1 04W      -0.074400
     20 CAT          4.2110    -0.1300     0.1460 c3         1 04W      -0.081400
     21 CAU          3.0990     0.6270    -0.5470 c3         1 04W       0.145400
     22 OAW          1.8600     0.2140     0.0090 os         1 04W      -0.331900
     23 OAX         -3.9170     0.3460    -0.1950 os         1 04W      -0.260900
     24 CAZ         -1.6560     1.0290    -0.0640 ca         1 04W      -0.041300
     25 CBA          0.7300     0.8200    -0.4020 ca         1 04W       0.130100
     26 CBB         -7.7990    -0.0330     1.0660 ca         1 04W      -0.245200
     27 CBC         -5.1630     0.1920     0.2540 ca         1 04W       0.204100
     28 CBD         -6.1770     0.0650    -0.7150 ca         1 04W      -0.168600
     29 HAA         15.2500    -0.9260     0.6650 hc         1 04W       0.030367
     30 HAAA        14.2330    -1.1080     2.0910 hc         1 04W       0.030367
     31 HAAB        14.2160    -2.3410     0.8350 hc         1 04W       0.030367
     32 HAF         -0.6020     3.0430    -2.5660 ha         1 04W       0.127000
     33 HAG         -2.6620     2.4250    -1.3660 ha         1 04W       0.159000
     34 HAH          1.5500     2.0560    -1.9780 ha         1 04W       0.124000
     35 HAI         -7.0270     0.0560     3.0800 ha         1 04W       0.142000
     36 HAJ         -4.7240     0.2780     2.3740 ha         1 04W       0.123000
     37 HAK         -0.3830    -0.2770     1.0660 ha         1 04W       0.138000
     38 HAL         -8.2720    -0.0720    -1.0320 ha         1 04W       0.180000
     39 HAM         13.2410     0.5450     0.4720 hc         1 04W       0.036200
     40 HAMA        13.2250    -0.6800    -0.7750 hc         1 04W       0.036200
     41 HAN         11.6610    -2.0640     0.6040 hc         1 04W       0.036700
     42 HANA        11.6780    -0.8390     1.8530 hc         1 04W       0.036700
     43 HAO         10.7220     0.8200     0.2380 hc         1 04W       0.036700
     44 HAOA        10.7020    -0.4060    -1.0100 hc         1 04W       0.036700
     45 HAP          9.1400    -1.7900     0.3750 hc         1 04W       0.037200
     46 HAPA         9.1630    -0.5650     1.6250 hc         1 04W       0.037200
     47 HAQ          8.2040     1.0960     0.0130 hc         1 04W       0.037200
     48 HAQA         8.1750    -0.1310    -1.2330 hc         1 04W       0.037200
     49 HAR          6.6150    -1.5080     0.1620 hc         1 04W       0.039200
     50 HARA         6.6510    -0.2820     1.4110 hc         1 04W       0.039200
     51 HAS          5.7000     1.3830    -0.2030 hc         1 04W       0.037700
     52 HASA         5.6460     0.1460    -1.4400 hc         1 04W       0.037700
     53 HAT          4.0830    -1.2040    -0.0170 hc         1 04W       0.053200
     54 HATA         4.1490     0.0390     1.2250 hc         1 04W       0.053200
     55 HAU          3.2320     1.7060    -0.4060 h1         1 04W       0.030700
     56 HAUA         3.1210     0.4310    -1.6250 h1         1 04W       0.030700
     57 HAV         -3.1880     1.5340     1.3350 h1         1 04W       0.035200
     58 HAVA        -2.6850    -0.1580     1.3990 h1         1 04W       0.035200
     59 CAY         -5.8890    -0.0020    -2.2130 c          1 04W       0.935200
     60 CAV         -2.8850     0.6780     0.7210 c3         1 04W       0.180700
     61 NBE         -9.1750    -0.1430     1.4830 no         1 04W       0.326200
@<TRIPOS>BOND
     1     1    13 1   
     2     1    29 1   
     3     1    30 1   
     4     1    31 1   
     5     2    59 1   
     6     3    61 1   
     7     4    59 1   
     8     5    61 1   
     9     6     7 ar  
    10     6     8 ar  
    11     6    32 1   
    12     7    24 ar  
    13     7    33 1   
    14     8    25 ar  
    15     8    34 1   
    16     9    10 ar  
    17     9    26 ar  
    18     9    35 1   
    19    10    27 ar  
    20    10    36 1   
    21    11    24 ar  
    22    11    25 ar  
    23    11    37 1   
    24    12    26 ar  
    25    12    28 ar  
    26    12    38 1   
    27    13    14 1   
    28    13    39 1   
    29    13    40 1   
    30    14    15 1   
    31    14    41 1   
    32    14    42 1   
    33    15    16 1   
    34    15    43 1   
    35    15    44 1   
    36    16    17 1   
    37    16    45 1   
    38    16    46 1   
    39    17    18 1   
    40    17    47 1   
    41    17    48 1   
    42    18    19 1   
    43    18    49 1   
    44    18    50 1   
    45    19    20 1   
    46    19    51 1   
    47    19    52 1   
    48    20    21 1   
    49    20    53 1   
    50    20    54 1   
    51    21    22 1   
    52    21    55 1   
    53    21    56 1   
    54    22    25 1   
    55    23    27 1   
    56    23    60 1   
    57    24    60 1   
    58    26    61 1   
    59    27    28 ar  
    60    28    59 1   
    61    57    60 1   
    62    58    60 1   
@<TRIPOS>SUBSTRUCTURE
     1 04W         1 TEMP              0 ****  ****    0 ROOT
