@<TRIPOS>MOLECULE
04W
   61    62     1     0     0
SMALL
No Charge or Current Charge


@<TRIPOS>ATOM
      1 CAA         14.0370    -2.1630     0.8490 c3         1 04W      -0.088100
      2 OAB         -5.5660    -1.1220    -2.8750 o          1 04W      -0.698500
      3 OAC         -9.3960    -1.1410     2.3680 o          1 04W      -0.437000
      4 OAD         -3.8660    -1.8270    -1.7530 o          1 04W      -0.698500
      5 OAE         -9.3640    -2.3420     0.5480 o          1 04W      -0.437000
      6 CAF         -0.5980     3.3280    -1.6940 ca         1 04W      -0.081000
      7 CAG         -1.7930     2.9810    -1.0430 ca         1 04W      -0.098000
      8 CAH          0.6130     2.7220    -1.3180 ca         1 04W      -0.198000
      9 CAI         -6.8940    -0.0020     1.8080 ca         1 04W      -0.032000
     10 CAJ         -5.6420     0.5340     1.4650 ca         1 04W      -0.253000
     11 CAK         -0.5720     1.4180     0.3620 ca         1 04W      -0.135000
     12 CAL         -6.8670    -1.3390    -0.2280 ca         1 04W      -0.002000
     13 CAM         12.9840    -1.2850     0.1450 c3         1 04W      -0.075400
     14 CAN         11.5570    -1.4910     0.6980 c3         1 04W      -0.075400
     15 CAO         10.5020    -0.6110    -0.0080 c3         1 04W      -0.074400
     16 CAP          9.0750    -0.8170     0.5450 c3         1 04W      -0.074400
     17 CAQ          8.0210     0.0630    -0.1610 c3         1 04W      -0.074400
     18 CAR          6.5930    -0.1430     0.3910 c3         1 04W      -0.074400
     19 CAS          5.5390     0.7370    -0.3150 c3         1 04W      -0.074400
     20 CAT          4.1110     0.5310     0.2370 c3         1 04W      -0.081400
     21 CAU          3.0620     1.4110    -0.4690 c3         1 04W       0.168600
     22 OAW          1.7840     1.1310     0.1280 os         1 04W      -0.355100
     23 OAX         -3.7740     0.6720    -0.0980 os         1 04W      -0.284100
     24 CAZ         -1.7880     2.0250    -0.0100 ca         1 04W      -0.041300
     25 CBA          0.6270     1.7600    -0.2840 ca         1 04W       0.130100
     26 CBB         -7.5200    -0.9430     0.9620 ca         1 04W      -0.245200
     27 CBC         -4.9920     0.1380     0.2760 ca         1 04W       0.204100
     28 CBD         -5.6070    -0.8070    -0.5660 ca         1 04W      -0.168600
     29 HAA         15.0310    -1.9830     0.4240 hc         1 04W       0.030367
     30 HAAA        14.0760    -1.9380     1.9220 hc         1 04W       0.030367
     31 HAAB        13.7990    -3.2270     0.7270 hc         1 04W       0.030367
     32 HAF         -0.6100     4.0680    -2.4920 ha         1 04W       0.109000
     33 HAG         -2.7270     3.4550    -1.3430 ha         1 04W       0.141000
     34 HAH          1.5220     3.0090    -1.8370 ha         1 04W       0.106000
     35 HAI         -7.3720     0.3220     2.7320 ha         1 04W       0.124000
     36 HAJ         -5.1970     1.2620     2.1370 ha         1 04W       0.105000
     37 HAK         -0.5550     0.6760     1.1560 ha         1 04W       0.120000
     38 HAL         -7.3280    -2.0640    -0.8980 ha         1 04W       0.162000
     39 HAM         13.2690    -0.2310     0.2550 hc         1 04W       0.036200
     40 HAMA        12.9940    -1.5090    -0.9290 hc         1 04W       0.036200
     41 HAN         11.2770    -2.5460     0.5880 hc         1 04W       0.036700
     42 HANA        11.5510    -1.2680     1.7720 hc         1 04W       0.036700
     43 HAO         10.7820     0.4440     0.1020 hc         1 04W       0.036700
     44 HAOA        10.5080    -0.8340    -1.0830 hc         1 04W       0.036700
     45 HAP          8.7950    -1.8720     0.4350 hc         1 04W       0.037200
     46 HAPA         9.0690    -0.5940     1.6190 hc         1 04W       0.037200
     47 HAQ          8.3010     1.1190    -0.0510 hc         1 04W       0.037200
     48 HAQA         8.0260    -0.1600    -1.2360 hc         1 04W       0.037200
     49 HAR          6.3140    -1.1980     0.2820 hc         1 04W       0.039200
     50 HARA         6.5880     0.0800     1.4660 hc         1 04W       0.039200
     51 HAS          5.8190     1.7930    -0.2050 hc         1 04W       0.037700
     52 HASA         5.5450     0.5150    -1.3890 hc         1 04W       0.037700
     53 HAT          3.8280    -0.5220     0.1250 hc         1 04W       0.053200
     54 HATA         4.1020     0.7570     1.3110 hc         1 04W       0.053200
     55 HAU          3.3250     2.4690    -0.3430 h1         1 04W       0.030700
     56 HAUA         3.0480     1.1750    -1.5420 h1         1 04W       0.030700
     57 HAV         -3.7010     2.5500     0.8210 h1         1 04W       0.035200
     58 HAVA        -2.8580     1.2490     1.6920 h1         1 04W       0.035200
     59 CAY         -4.9420    -1.2530    -1.8320 c          1 04W       0.724600
     60 CAV         -3.0850     1.6510     0.6960 c3         1 04W       0.203900
     61 NBE         -8.8570    -1.5170     1.3190 no         1 04W       0.706200
@<TRIPOS>BOND
     1     1    13 1   
     2     1    29 1   
     3     1    30 1   
     4     1    31 1   
     5     2    59 1   
     6     3    61 1   
     7     4    59 1   
     8     5    61 1   
     9     6     7 ar  
    10     6     8 ar  
    11     6    32 1   
    12     7    24 ar  
    13     7    33 1   
    14     8    25 ar  
    15     8    34 1   
    16     9    10 ar  
    17     9    26 ar  
    18     9    35 1   
    19    10    27 ar  
    20    10    36 1   
    21    11    24 ar  
    22    11    25 ar  
    23    11    37 1   
    24    12    26 ar  
    25    12    28 ar  
    26    12    38 1   
    27    13    14 1   
    28    13    39 1   
    29    13    40 1   
    30    14    15 1   
    31    14    41 1   
    32    14    42 1   
    33    15    16 1   
    34    15    43 1   
    35    15    44 1   
    36    16    17 1   
    37    16    45 1   
    38    16    46 1   
    39    17    18 1   
    40    17    47 1   
    41    17    48 1   
    42    18    19 1   
    43    18    49 1   
    44    18    50 1   
    45    19    20 1   
    46    19    51 1   
    47    19    52 1   
    48    20    21 1   
    49    20    53 1   
    50    20    54 1   
    51    21    22 1   
    52    21    55 1   
    53    21    56 1   
    54    22    25 1   
    55    23    27 1   
    56    23    60 1   
    57    24    60 1   
    58    26    61 1   
    59    27    28 ar  
    60    28    59 1   
    61    57    60 1   
    62    58    60 1   
@<TRIPOS>SUBSTRUCTURE
     1 04W         1 TEMP              0 ****  ****    0 ROOT
