@<TRIPOS>MOLECULE
04X
   33    34     1     0     0
SMALL
bcc


@<TRIPOS>ATOM
      1 C2         -59.6190   -51.2710     6.3200 c6         1 04X       0.130400
      2 C          -65.4530   -51.9770     5.1330 c          1 04X       0.937600
      3 N1         -60.4740   -53.4570     5.6830 n3         1 04X      -0.716600
      4 C1         -60.5690   -52.0330     5.4170 c6         1 04X       0.126800
      5 O1         -58.2870   -51.7100     6.1650 os         1 04X      -0.418600
      6 CA         -65.5360   -53.4300     5.6790 c6         1 04X       0.021500
      7 N          -65.2370   -54.4350     4.6650 n7         1 04X      -0.753200
      8 O          -65.4430   -51.0770     5.9970 o          1 04X      -0.832300
      9 C4         -59.1030   -53.8940     5.5040 c6         1 04X       0.126800
     10 CB         -64.6660   -53.6260     6.9210 c6         1 04X      -0.062200
     11 CG         -63.2240   -53.7660     6.5360 c2         1 04X      -0.125200
     12 CD         -62.8410   -54.1040     5.3070 c2         1 04X      -0.183400
     13 CE         -63.8510   -54.4060     4.2320 c6         1 04X       0.206000
     14 C0         -61.4030   -54.2220     4.8790 c3         1 04X       0.220000
     15 C3         -58.1830   -53.0950     6.4090 c6         1 04X       0.130400
     16 H4         -59.6410   -50.2080     6.0770 h1         1 04X       0.043700
     17 H5         -59.9420   -51.3860     7.3650 h1         1 04X       0.043700
     18 H15        -61.5870   -51.6880     5.6050 h1         1 04X       0.045450
     19 H16        -60.3380   -51.8080     4.3610 h1         1 04X       0.045450
     20 H18        -66.5840   -53.5780     5.9690 h1         1 04X       0.039700
     21 H32        -59.0200   -54.9530     5.7640 h1         1 04X       0.045450
     22 H33        -58.7700   -53.7890     4.4570 h1         1 04X       0.045450
     23 H39        -64.7940   -52.7930     7.6120 hc         1 04X       0.038700
     24 H40        -64.9930   -54.5200     7.4680 hc         1 04X       0.038700
     25 H41        -62.4690   -53.5590     7.2890 ha         1 04X       0.113000
     26 H44        -63.6140   -55.3740     3.7780 h1         1 04X       0.044700
     27 H45        -63.7310   -53.6710     3.4290 h1         1 04X       0.044700
     28 H55        -61.3250   -53.9510     3.8090 h1         1 04X       0.023200
     29 H56        -61.1100   -55.2770     4.9280 h1         1 04X       0.023200
     30 H63        -57.1440   -53.3800     6.2350 h1         1 04X       0.043700
     31 H64        -58.4250   -53.3200     7.4570 h1         1 04X       0.043700
     32 OXT        -65.4510   -51.8170     3.8980 o          1 04X      -0.832300
     33 H2         -65.4260   -55.3450     5.0660 hn         1 04X       0.301800
@<TRIPOS>BOND
     1     1     4 1   
     2     1     5 1   
     3     1    16 1   
     4     1    17 1   
     5     2     6 1   
     6     2     8 1   
     7     2    32 1   
     8     3     4 1   
     9     3     9 1   
    10     3    14 1   
    11     4    18 1   
    12     4    19 1   
    13     5    15 1   
    14     6     7 1   
    15     6    10 1   
    16     6    20 1   
    17     7    13 1   
    18     7    33 1   
    19     9    15 1   
    20     9    21 1   
    21     9    22 1   
    22    10    11 1   
    23    10    23 1   
    24    10    24 1   
    25    11    12 2   
    26    11    25 1   
    27    12    13 1   
    28    12    14 1   
    29    13    26 1   
    30    13    27 1   
    31    14    28 1   
    32    14    29 1   
    33    15    30 1   
    34    15    31 1   
@<TRIPOS>SUBSTRUCTURE
     1 04X         1 TEMP              0 ****  ****    0 ROOT
