@<TRIPOS>MOLECULE
04Y
   47    50     1     0     0
SMALL
abcg2


@<TRIPOS>ATOM
      1 C4          17.8360    -2.6660   -23.8380 ca         1 04Y      -0.089000
      2 C5          17.8500    -4.4680   -22.2500 ca         1 04Y      -0.089000
      3 C6          14.8410    -4.1470   -22.5120 ca         1 04Y      -0.139000
      4 C7          13.5060    -3.8820   -22.2500 ca         1 04Y       0.309900
      5 C8          13.9440    -1.6780   -21.9270 ca         1 04Y       0.282900
      6 C10         15.7720    -3.1150   -22.4950 cp         1 04Y      -0.016000
      7 C13         20.3000     5.6750   -20.6290 cx         1 04Y      -0.134400
      8 C15         16.7640     1.5640   -22.6140 c6         1 04Y      -0.070900
      9 C17         15.6520     0.5860   -22.2650 c6         1 04Y       0.195300
     10 C20         19.8820     4.7300   -21.7080 cx         1 04Y       0.048700
     11 C1          19.7970    -4.0430   -23.5970 ca         1 04Y      -0.103000
     12 C2          19.1320    -2.9870   -24.2090 ca         1 04Y      -0.116000
     13 C3          19.1520    -4.7820   -22.6160 ca         1 04Y      -0.116000
     14 C9          17.1780    -3.4060   -22.8540 cp         1 04Y      -0.046000
     15 C11         15.3120    -1.8260   -22.1670 ca         1 04Y       0.238000
     16 C12         18.9800     2.4860   -21.9500 c          1 04Y       0.602100
     17 C14         21.2770     4.6750   -21.1680 cx         1 04Y      -0.134400
     18 C16         18.3550     0.1260   -21.3360 c6         1 04Y      -0.070900
     19 C18         17.1920    -0.8050   -21.0370 c6         1 04Y       0.195300
     20 C19         17.8580     1.5530   -21.5420 c6         1 04Y      -0.142700
     21 N21         13.0590    -2.6660   -21.9750 nb         1 04Y      -0.648000
     22 N22         16.1970    -0.7480   -22.1010 nh         1 04Y      -0.787400
     23 O24         19.8210     2.1690   -22.7780 o          1 04Y      -0.591100
     24 H1          17.3290    -1.8420   -24.3210 ha         1 04Y       0.120000
     25 H2          17.3560    -5.0470   -21.4790 ha         1 04Y       0.120000
     26 H3          15.1480    -5.1530   -22.7660 ha         1 04Y       0.126000
     27 H4          12.7750    -4.6830   -22.2730 h4         1 04Y       0.020100
     28 H5          13.5430    -0.7010   -21.6810 h4         1 04Y       0.016100
     29 H7          19.9050     5.5090   -19.6340 hc         1 04Y       0.077200
     30 H8          17.1920     1.2910   -23.5820 hc         1 04Y       0.061700
     31 H9          16.3370     2.5650   -22.7140 hc         1 04Y       0.061700
     32 H10         15.1350     0.9360   -21.3580 h1         1 04Y       0.039200
     33 H11         14.9180     0.5770   -23.0730 h1         1 04Y       0.039200
     34 H12         19.7590     5.1440   -22.7040 h1         1 04Y       0.087700
     35 H13         20.8110    -4.2880   -23.8850 ha         1 04Y       0.113000
     36 H14         19.6260    -2.4100   -24.9810 ha         1 04Y       0.114500
     37 H15         19.6610    -5.6050   -22.1320 ha         1 04Y       0.114500
     38 H16         21.5350     3.8340   -20.5370 hc         1 04Y       0.077200
     39 H17         22.0780     5.0230   -21.8060 hc         1 04Y       0.077200
     40 H18         18.8690    -0.2250   -22.2330 hc         1 04Y       0.061700
     41 H19         19.0670     0.0830   -20.5090 hc         1 04Y       0.061700
     42 H20         16.7340    -0.5320   -20.0730 h1         1 04Y       0.039200
     43 H21         17.5630    -1.8240   -20.9330 h1         1 04Y       0.039200
     44 H22         17.4120     1.9030   -20.6040 hc         1 04Y       0.047700
     45 N23         18.9610     3.6980   -21.3640 ns         1 04Y      -0.486900
     46 H6          20.4210     6.7170   -20.8930 hc         1 04Y       0.077200
     47 H23         18.2020     3.9240   -20.7400 hn         1 04Y       0.315500
@<TRIPOS>BOND
     1     1    12 ar  
     2     1    14 ar  
     3     1    24 1   
     4     2    13 ar  
     5     2    14 ar  
     6     2    25 1   
     7     3     4 ar  
     8     3     6 ar  
     9     3    26 1   
    10     4    21 ar  
    11     4    27 1   
    12     5    15 ar  
    13     5    21 ar  
    14     5    28 1   
    15     6    14 1   
    16     6    15 ar  
    17     7    10 1   
    18     7    17 1   
    19     7    29 1   
    20     7    46 1   
    21     8     9 1   
    22     8    20 1   
    23     8    30 1   
    24     8    31 1   
    25     9    22 1   
    26     9    32 1   
    27     9    33 1   
    28    10    17 1   
    29    10    34 1   
    30    10    45 1   
    31    11    12 ar  
    32    11    13 ar  
    33    11    35 1   
    34    12    36 1   
    35    13    37 1   
    36    15    22 1   
    37    16    20 1   
    38    16    23 2   
    39    16    45 1   
    40    17    38 1   
    41    17    39 1   
    42    18    19 1   
    43    18    20 1   
    44    18    40 1   
    45    18    41 1   
    46    19    22 1   
    47    19    42 1   
    48    19    43 1   
    49    20    44 1   
    50    45    47 1   
@<TRIPOS>SUBSTRUCTURE
     1 04Y         1 TEMP              0 ****  ****    0 ROOT
