@<TRIPOS>MOLECULE
04Y
   47    50     1     0     0
SMALL
No Charge or Current Charge


@<TRIPOS>ATOM
      1 C4          17.8430    -2.5550   -23.7520 ca         1 04Y      -0.089000
      2 C5          17.9070    -4.4800   -22.2720 ca         1 04Y      -0.089000
      3 C6          14.8440    -4.2760   -22.4940 ca         1 04Y      -0.139000
      4 C7          13.4850    -4.0960   -22.1970 ca         1 04Y       0.309900
      5 C8          13.8100    -1.8370   -21.8310 ca         1 04Y       0.282900
      6 C10         15.7410    -3.1790   -22.4650 cp         1 04Y      -0.016000
      7 C13         20.4500     5.6020   -20.5560 cx         1 04Y      -0.134400
      8 C15         16.5860     1.5600   -22.8230 c6         1 04Y      -0.070900
      9 C17         15.4700     0.6170   -22.3120 c6         1 04Y       0.195300
     10 C20         20.1240     4.6620   -21.6890 cx         1 04Y       0.048700
     11 C1          19.8960    -3.8400   -23.5220 ca         1 04Y      -0.103000
     12 C2          19.1890    -2.7700   -24.0930 ca         1 04Y      -0.116000
     13 C3          19.2540    -4.6970   -22.6130 ca         1 04Y      -0.116000
     14 C9          17.1780    -3.4000   -22.8290 cp         1 04Y      -0.046000
     15 C11         15.2060    -1.9010   -22.1110 ca         1 04Y       0.238000
     16 C12         18.9030     2.5690   -22.2690 c          1 04Y       0.602100
     17 C14         21.4310     4.5250   -20.9490 cx         1 04Y      -0.134400
     18 C16         18.2800     0.2040   -21.4300 c6         1 04Y      -0.070900
     19 C18         17.1090    -0.7000   -20.9710 c6         1 04Y       0.195300
     20 C19         17.7750     1.6160   -21.8280 c6         1 04Y      -0.142700
     21 N21         12.9620    -2.8960   -21.8710 nb         1 04Y      -0.648000
     22 N22         16.0190    -0.7300   -21.9890 nh         1 04Y      -0.787400
     23 O24         19.5670     2.3680   -23.2780 o          1 04Y      -0.591100
     24 H1          17.3060    -1.7240   -24.2040 ha         1 04Y       0.120000
     25 H2          17.4250    -5.1470   -21.5620 ha         1 04Y       0.120000
     26 H3          15.1970    -5.2660   -22.7650 ha         1 04Y       0.126000
     27 H4          12.7930    -4.9370   -22.2270 h4         1 04Y       0.020100
     28 H5          13.3500    -0.8930   -21.5420 h4         1 04Y       0.016100
     29 H7          19.9150     5.4820   -19.6170 hc         1 04Y       0.077200
     30 H8          16.9390     1.2040   -23.8000 hc         1 04Y       0.061700
     31 H9          16.1760     2.5660   -22.9850 hc         1 04Y       0.061700
     32 H10         15.0000     1.0560   -21.4190 h1         1 04Y       0.039200
     33 H11         14.6950     0.5390   -23.0890 h1         1 04Y       0.039200
     34 H12         20.1450     5.0560   -22.7070 h1         1 04Y       0.087700
     35 H13         20.9380    -4.0070   -23.7850 ha         1 04Y       0.113000
     36 H14         19.6830    -2.1060   -24.8000 ha         1 04Y       0.114500
     37 H15         19.7990    -5.5280   -22.1700 ha         1 04Y       0.114500
     38 H16         21.5510     3.6770   -20.2780 hc         1 04Y       0.077200
     39 H17         22.3370     4.8270   -21.4680 hc         1 04Y       0.077200
     40 H18         18.7850    -0.2630   -22.2860 hc         1 04Y       0.061700
     41 H19         19.0270     0.2770   -20.6280 hc         1 04Y       0.061700
     42 H20         16.7130    -0.3210   -20.0170 h1         1 04Y       0.039200
     43 H21         17.4960    -1.7110   -20.7790 h1         1 04Y       0.039200
     44 H22         17.3660     2.0520   -20.9050 hc         1 04Y       0.047700
     45 N23         19.1180     3.6620   -21.4570 ns         1 04Y      -0.486900
     46 H6          20.6980     6.6300   -20.8100 hc         1 04Y       0.077200
     47 H23         18.5140     3.7460   -20.6480 hn         1 04Y       0.315500
@<TRIPOS>BOND
     1     1    12 ar  
     2     1    14 ar  
     3     1    24 1   
     4     2    13 ar  
     5     2    14 ar  
     6     2    25 1   
     7     3     4 ar  
     8     3     6 ar  
     9     3    26 1   
    10     4    21 ar  
    11     4    27 1   
    12     5    15 ar  
    13     5    21 ar  
    14     5    28 1   
    15     6    14 1   
    16     6    15 ar  
    17     7    10 1   
    18     7    17 1   
    19     7    29 1   
    20     7    46 1   
    21     8     9 1   
    22     8    20 1   
    23     8    30 1   
    24     8    31 1   
    25     9    22 1   
    26     9    32 1   
    27     9    33 1   
    28    10    17 1   
    29    10    34 1   
    30    10    45 1   
    31    11    12 ar  
    32    11    13 ar  
    33    11    35 1   
    34    12    36 1   
    35    13    37 1   
    36    15    22 1   
    37    16    20 1   
    38    16    23 2   
    39    16    45 1   
    40    17    38 1   
    41    17    39 1   
    42    18    19 1   
    43    18    20 1   
    44    18    40 1   
    45    18    41 1   
    46    19    22 1   
    47    19    42 1   
    48    19    43 1   
    49    20    44 1   
    50    45    47 1   
@<TRIPOS>SUBSTRUCTURE
     1 04Y         1 TEMP              0 ****  ****    0 ROOT
