@<TRIPOS>MOLECULE
04Z
   43    45     1     0     0
SMALL
bcc


@<TRIPOS>ATOM
      1 C1          -6.8640    -0.8190     0.5920 ca         1 04Z      -0.203000
      2 N1           0.1050     1.3570    -0.1910 nc         1 04Z      -0.794000
      3 O1           7.1650     0.2880    -1.1250 o          1 04Z      -0.616800
      4 S1          -1.7710    -0.3450     0.3270 ss         1 04Z      -0.195300
      5 C2          -5.9010    -1.1570    -0.3550 ca         1 04Z       0.134100
      6 N2          -1.0130     3.3330    -0.6180 nv         1 04Z      -0.937500
      7 O2           7.2400    -1.9930    -0.1010 o          1 04Z      -0.616800
      8 S2           6.7580    -0.6180    -0.0600 sy         1 04Z       1.274200
      9 C3          -4.8100    -0.3100    -0.5600 ca         1 04Z      -0.142000
     10 N3           0.8480    -0.8140     0.3260 nu         1 04Z      -0.725300
     11 O3          -3.7990     3.0060    -0.2640 o          1 04Z      -0.587100
     12 C4          -5.6680     1.2200     1.0930 ca         1 04Z      -0.122000
     13 N4           7.1450     0.1530     1.3510 n8         1 04Z      -0.891700
     14 C5          -6.7340     0.3670     1.3080 ca         1 04Z      -0.099000
     15 O6          -5.9380    -2.2650    -1.1160 os         1 04Z      -0.318900
     16 C7          -7.0350    -3.1470    -0.9730 c3         1 04Z       0.125700
     17 C10         -4.6910     0.8690     0.1620 ca         1 04Z      -0.115600
     18 C11         -3.5570     1.8100    -0.0870 c          1 04Z       0.646300
     19 C12         -2.2290     1.3000    -0.0810 cd         1 04Z      -0.386000
     20 C13         -1.0620     2.0420    -0.3080 cc         1 04Z       0.756200
     21 C14         -0.1100     0.1170     0.1360 cd         1 04Z       0.753300
     22 C15          2.2280    -0.6980     0.2140 ca         1 04Z       0.220600
     23 C16          2.8930     0.4820    -0.1320 ca         1 04Z      -0.193500
     24 C17          4.2740     0.4910    -0.2130 ca         1 04Z       0.004000
     25 C18          5.0000    -0.6630     0.0450 ca         1 04Z      -0.308500
     26 C19          4.3490    -1.8420     0.3840 ca         1 04Z       0.004000
     27 C20          2.9720    -1.8550     0.4680 ca         1 04Z      -0.193500
     28 H1          -7.7170    -1.4580     0.7790 ha         1 04Z       0.135000
     29 HN2         -0.1280     3.7780    -0.7850 hn         1 04Z       0.463800
     30 HN2A        -1.8630     3.8620    -0.7080 hn         1 04Z       0.463800
     31 H3          -4.0790    -0.5740    -1.3160 ha         1 04Z       0.153000
     32 HN3          0.5230    -1.7340     0.5850 hn         1 04Z       0.455800
     33 H4          -5.5850     2.1420     1.6540 ha         1 04Z       0.146000
     34 HN4          8.0890     0.5280     1.3220 hn         1 04Z       0.416300
     35 HN4A         7.0290    -0.4420     2.1650 hn         1 04Z       0.416300
     36 H5          -7.4890     0.6210     2.0400 ha         1 04Z       0.132000
     37 H7          -7.9840    -2.6590    -1.2090 h1         1 04Z       0.041033
     38 H7A         -6.8720    -3.9580    -1.6780 h1         1 04Z       0.041033
     39 H7B         -7.0940    -3.5640     0.0350 h1         1 04Z       0.041033
     40 H16          2.3440     1.3850    -0.3390 ha         1 04Z       0.155000
     41 H17          4.7730     1.4120    -0.4830 ha         1 04Z       0.156000
     42 H19          4.9020    -2.7490     0.5850 ha         1 04Z       0.156000
     43 H20          2.4680    -2.7750     0.7360 ha         1 04Z       0.155000
@<TRIPOS>BOND
     1     1     5 ar  
     2     1    14 ar  
     3     1    28 1   
     4     2    20 1   
     5     2    21 2   
     6     3     8 2   
     7     4    19 1   
     8     4    21 1   
     9     5     9 ar  
    10     5    15 1   
    11     6    20 1   
    12     6    29 1   
    13     6    30 1   
    14     7     8 2   
    15     8    13 1   
    16     8    25 1   
    17     9    17 ar  
    18     9    31 1   
    19    10    21 1   
    20    10    22 1   
    21    10    32 1   
    22    11    18 2   
    23    12    14 ar  
    24    12    17 ar  
    25    12    33 1   
    26    13    34 1   
    27    13    35 1   
    28    14    36 1   
    29    15    16 1   
    30    16    37 1   
    31    16    38 1   
    32    16    39 1   
    33    17    18 1   
    34    18    19 1   
    35    19    20 2   
    36    22    23 ar  
    37    22    27 ar  
    38    23    24 ar  
    39    23    40 1   
    40    24    25 ar  
    41    24    41 1   
    42    25    26 ar  
    43    26    27 ar  
    44    26    42 1   
    45    27    43 1   
@<TRIPOS>SUBSTRUCTURE
     1 04Z         1 TEMP              0 ****  ****    0 ROOT
