@<TRIPOS>MOLECULE
04Z
   43    45     1     0     0
SMALL
No Charge or Current Charge


@<TRIPOS>ATOM
      1 C1          -7.0420    -0.7720     0.4040 ca         1 04Z      -0.185000
      2 N1           0.0900     1.3060     0.0730 nc         1 04Z      -0.794000
      3 O1           7.2510    -0.0490    -1.3840 o          1 04Z      -0.546000
      4 S1          -1.8380    -0.4560     0.3930 ss         1 04Z      -0.050400
      5 C2          -6.0270    -1.0680    -0.5300 ca         1 04Z       0.134100
      6 N2          -0.9170     3.2170    -0.2690 nv         1 04Z      -1.047900
      7 O2           7.4480    -1.9580     0.3100 o          1 04Z      -0.546000
      8 S2           6.8620    -0.6950    -0.1330 sy         1 04Z       1.132600
      9 C3          -4.9070    -0.2260    -0.6290 ca         1 04Z      -0.124000
     10 N3           0.8880    -0.8130     0.5180 nu         1 04Z      -0.918900
     11 O3          -3.7510     3.0420     0.0220 o          1 04Z      -0.587100
     12 C4          -5.8100     1.2040     1.1190 ca         1 04Z      -0.104000
     13 N4           7.3330     0.3670     1.0090 n8         1 04Z      -1.002100
     14 C5          -6.9320     0.3650     1.2220 ca         1 04Z      -0.081000
     15 O6          -6.0860    -2.1620    -1.3700 os         1 04Z      -0.342100
     16 C7          -7.1880    -3.0870    -1.3490 c3         1 04Z       0.148900
     17 C10         -4.7790     0.9090     0.2020 ca         1 04Z      -0.115600
     18 C11         -3.5870     1.8300     0.0920 c          1 04Z       0.646300
     19 C12         -2.2370     1.2300     0.0870 cd         1 04Z      -0.465600
     20 C13         -1.0850     1.9320    -0.0510 cc         1 04Z       0.690900
     21 C14         -0.1470     0.0360     0.2880 cd         1 04Z       0.753300
     22 C15          2.2710    -0.7410     0.3510 ca         1 04Z       0.359000
     23 C16          2.8850     0.1620    -0.5360 ca         1 04Z      -0.175500
     24 C17          4.2820     0.1820    -0.6850 ca         1 04Z       0.022000
     25 C18          5.0790    -0.7150     0.0520 ca         1 04Z      -0.308500
     26 C19          4.4710    -1.6300     0.9320 ca         1 04Z       0.022000
     27 C20          3.0720    -1.6410     1.0710 ca         1 04Z      -0.175500
     28 H1          -7.9210    -1.4030     0.5050 ha         1 04Z       0.117000
     29 HN2         -0.0170     3.5670     0.0270 hn         1 04Z       0.519000
     30 HN2A        -1.7260     3.7950    -0.0670 hn         1 04Z       0.519000
     31 H3          -4.1410    -0.4530    -1.3660 ha         1 04Z       0.135000
     32 HN3          0.5630    -1.6750     0.9420 hn         1 04Z       0.511000
     33 H4          -5.7370     2.0830     1.7560 ha         1 04Z       0.128000
     34 HN4          7.9070     0.9930     0.4510 hn         1 04Z       0.471500
     35 HN4A         8.0330    -0.1870     1.4960 hn         1 04Z       0.471500
     36 H5          -7.7180     0.5980     1.9380 ha         1 04Z       0.114000
     37 H7          -8.1300    -2.5770    -1.5880 h1         1 04Z       0.041033
     38 H7A         -7.0330    -3.8790    -2.0920 h1         1 04Z       0.041033
     39 H7B         -7.2820    -3.5600    -0.3630 h1         1 04Z       0.041033
     40 H16          2.2890     0.8450    -1.1300 ha         1 04Z       0.137000
     41 H17          4.7370     0.8920    -1.3740 ha         1 04Z       0.138000
     42 H19          5.0730    -2.3310     1.5080 ha         1 04Z       0.138000
     43 H20          2.6140    -2.3510     1.7530 ha         1 04Z       0.137000
@<TRIPOS>BOND
     1     1     5 ar  
     2     1    14 ar  
     3     1    28 1   
     4     2    20 1   
     5     2    21 2   
     6     3     8 2   
     7     4    19 1   
     8     4    21 1   
     9     5     9 ar  
    10     5    15 1   
    11     6    20 1   
    12     6    29 1   
    13     6    30 1   
    14     7     8 2   
    15     8    13 1   
    16     8    25 1   
    17     9    17 ar  
    18     9    31 1   
    19    10    21 1   
    20    10    22 1   
    21    10    32 1   
    22    11    18 2   
    23    12    14 ar  
    24    12    17 ar  
    25    12    33 1   
    26    13    34 1   
    27    13    35 1   
    28    14    36 1   
    29    15    16 1   
    30    16    37 1   
    31    16    38 1   
    32    16    39 1   
    33    17    18 1   
    34    18    19 1   
    35    19    20 2   
    36    22    23 ar  
    37    22    27 ar  
    38    23    24 ar  
    39    23    40 1   
    40    24    25 ar  
    41    24    41 1   
    42    25    26 ar  
    43    26    27 ar  
    44    26    42 1   
    45    27    43 1   
@<TRIPOS>SUBSTRUCTURE
     1 04Z         1 TEMP              0 ****  ****    0 ROOT
