@<TRIPOS>MOLECULE
051
   58    61     1     0     0
SMALL
abcg2


@<TRIPOS>ATOM
      1 N30        -11.5780     1.5550    -1.1490 n1         1 051      -0.465000
      2 C30        -10.5290     1.2420    -0.7880 cg         1 051       0.332000
      3 C27         -9.2290     0.8520    -0.3470 ca         1 051      -0.004000
      4 C26         -9.0110     0.6040     1.0080 ca         1 051      -0.121000
      5 C25         -7.7460     0.2290     1.3970 ca         1 051       0.161000
      6 F25         -7.5220    -0.0150     2.6950 f          1 051      -0.177000
      7 C28         -8.1930     0.7230    -1.2660 ca         1 051      -0.090000
      8 C29         -6.9330     0.3450    -0.8320 ca         1 051      -0.061000
      9 C24         -6.6840     0.0900     0.5120 ca         1 051      -0.090300
     10 C23         -5.3460    -0.3300     1.0470 c3         1 051       0.216900
     11 O22         -4.4230    -0.3390    -0.0130 os         1 051      -0.359100
     12 C20         -3.1450    -0.6920     0.2270 ca         1 051       0.124100
     13 C21         -2.2900    -0.6810    -0.8520 ca         1 051      -0.145000
     14 C15         -0.9390    -1.0340    -0.6950 ca         1 051       0.030000
     15 C14         -0.0330    -1.0270    -1.7880 ca         1 051      -0.139000
     16 C13          1.2740    -1.3750    -1.6180 ca         1 051       0.012000
     17 C19         -2.6710    -1.0600     1.5070 ca         1 051      -0.210000
     18 C18         -1.3570    -1.4060     1.6720 ca         1 051      -0.042000
     19 C16         -0.4570    -1.4040     0.5870 ca         1 051      -0.092000
     20 C17          0.9010    -1.7580     0.7460 ca         1 051       0.009000
     21 C12          1.7370    -1.7470    -0.3340 ca         1 051      -0.276500
     22 S11          3.4470    -2.1820    -0.1460 sy         1 051       1.111600
     23 O32          3.6370    -2.6020     1.2360 o          1 051      -0.574000
     24 O33          3.7860    -3.1200    -1.2110 o          1 051      -0.574000
     25 N            4.3110    -0.8350    -0.4420 n7         1 051      -0.834300
     26 C1           4.0080     0.4140     0.2750 c6         1 051       0.222500
     27 C3           4.6300     0.4580     1.6670 c6         1 051      -0.081400
     28 C6           6.1510     0.4620     1.6290 c6         1 051      -0.042400
     29 C4           6.6920     1.6130     0.7810 c6         1 051      -0.185700
     30 C8           8.2360     1.6470     0.7760 c          1 051       0.720000
     31 O4           8.7970     1.4990     1.8820 o          1 051      -0.753500
     32 O3           8.8120     1.8380    -0.3140 o          1 051      -0.753500
     33 C5           6.0770     1.5830    -0.6140 c6         1 051      -0.034400
     34 C2           4.5430     1.5800    -0.5750 c6         1 051      -0.195700
     35 C7           3.9840     1.6010    -2.0090 c          1 051       0.716000
     36 O1           4.0970     0.5290    -2.6690 o          1 051      -0.733500
     37 O2           3.5050     2.6600    -2.4400 o          1 051      -0.733500
     38 H26         -9.8040     0.6990     1.7360 ha         1 051       0.138000
     39 H28         -8.3690     0.9160    -2.3150 ha         1 051       0.130000
     40 H29         -6.1390     0.2490    -1.5580 ha         1 051       0.151000
     41 H231        -5.0300     0.3630     1.8360 h1         1 051       0.053700
     42 H232        -5.4300    -1.3240     1.5010 h1         1 051       0.053700
     43 H21         -2.6610    -0.3970    -1.8290 ha         1 051       0.121000
     44 H19         -3.3270    -1.0750     2.3660 ha         1 051       0.102000
     45 H14         -0.3920    -0.7380    -2.7680 ha         1 051       0.113000
     46 H13          1.9530    -1.3490    -2.4590 ha         1 051       0.161000
     47 H18         -0.9990    -1.6870     2.6550 ha         1 051       0.112000
     48 H17          1.2590    -2.0380     1.7280 ha         1 051       0.135000
     49 H            4.3210    -0.6070    -1.4640 hn         1 051       0.563000
     50 H1           2.9210     0.5390     0.3750 h1         1 051       0.006700
     51 H31C         4.2720     1.3720     2.1510 hc         1 051       0.021200
     52 H32C         4.2610    -0.3720     2.2710 hc         1 051       0.021200
     53 H2           4.2140     2.4920    -0.0690 hc         1 051       0.036700
     54 H61C         6.5400     0.5360     2.6460 hc         1 051       0.038700
     55 H62C         6.5060    -0.4930     1.2280 hc         1 051       0.038700
     56 H4           6.3670     2.5470     1.2650 hc         1 051       0.011700
     57 H51C         6.4140     2.4520    -1.1840 hc         1 051       0.052200
     58 H52C         6.4390     0.7050    -1.1550 hc         1 051       0.052200
@<TRIPOS>BOND
     1     1     2 3   
     2     2     3 1   
     3     3     4 ar  
     4     3     7 ar  
     5     4     5 ar  
     6     4    38 1   
     7     5     6 1   
     8     5     9 ar  
     9     7     8 ar  
    10     7    39 1   
    11     8     9 ar  
    12     8    40 1   
    13     9    10 1   
    14    10    11 1   
    15    10    41 1   
    16    10    42 1   
    17    11    12 1   
    18    12    13 ar  
    19    12    17 ar  
    20    13    14 ar  
    21    13    43 1   
    22    14    15 ar  
    23    14    19 ar  
    24    15    16 ar  
    25    15    45 1   
    26    16    21 ar  
    27    16    46 1   
    28    17    18 ar  
    29    17    44 1   
    30    18    19 ar  
    31    18    47 1   
    32    19    20 ar  
    33    20    21 ar  
    34    20    48 1   
    35    21    22 1   
    36    22    23 2   
    37    22    24 2   
    38    22    25 1   
    39    25    26 1   
    40    25    49 1   
    41    26    27 1   
    42    26    34 1   
    43    26    50 1   
    44    27    28 1   
    45    27    51 1   
    46    27    52 1   
    47    28    29 1   
    48    28    54 1   
    49    28    55 1   
    50    29    30 1   
    51    29    33 1   
    52    29    56 1   
    53    30    31 1   
    54    30    32 1   
    55    33    34 1   
    56    33    57 1   
    57    33    58 1   
    58    34    35 1   
    59    34    53 1   
    60    35    36 1   
    61    35    37 1   
@<TRIPOS>SUBSTRUCTURE
     1 051         1 TEMP              0 ****  ****    0 ROOT
