@<TRIPOS>MOLECULE
051
   58    61     1     0     0
SMALL
No Charge or Current Charge


@<TRIPOS>ATOM
      1 N30        -11.3610     1.8740    -0.6050 n1         1 051      -0.465000
      2 C30        -10.3080     1.4760    -0.2940 cg         1 051       0.332000
      3 C27         -9.0090     0.9970     0.0950 ca         1 051      -0.004000
      4 C26         -8.0930     1.8600     0.7290 ca         1 051      -0.121000
      5 C25         -6.8260     1.3890     1.1070 ca         1 051       0.161000
      6 F25         -5.9650     2.2380     1.7120 f          1 051      -0.177000
      7 C28         -8.6410    -0.3400    -0.1560 ca         1 051      -0.090000
      8 C29         -7.3710    -0.8090     0.2240 ca         1 051      -0.061000
      9 C24         -6.4540     0.0510     0.8610 ca         1 051      -0.090300
     10 C23         -5.0810    -0.4700     1.2650 c3         1 051       0.216900
     11 O22         -4.2050    -0.3690     0.1290 os         1 051      -0.359100
     12 C20         -2.8870    -0.7720     0.1790 ca         1 051       0.124100
     13 C21         -2.1140    -0.6300    -0.9840 ca         1 051      -0.145000
     14 C15         -0.7640    -1.0220    -0.9950 ca         1 051       0.030000
     15 C14          0.0060    -0.8810    -2.1640 ca         1 051      -0.139000
     16 C13          1.3560    -1.2700    -2.1750 ca         1 051       0.012000
     17 C19         -2.3020    -1.3120     1.3450 ca         1 051      -0.210000
     18 C18         -0.9520    -1.7060     1.3370 ca         1 051      -0.042000
     19 C16         -0.1790    -1.5630     0.1700 ca         1 051      -0.092000
     20 C17          1.1730    -1.9550     0.1600 ca         1 051       0.009000
     21 C12          1.9460    -1.8000    -1.0080 ca         1 051      -0.276500
     22 S11          3.6780    -2.2960    -1.0210 sy         1 051       1.111600
     23 O32          3.9750    -3.1670     0.1190 o          1 051      -0.574000
     24 O33          4.0370    -2.6700    -2.3900 o          1 051      -0.574000
     25 N            4.5530    -0.8980    -0.7760 n7         1 051      -0.834300
     26 C1           3.8620     0.3300    -0.3440 c6         1 051       0.222500
     27 C3           3.6740     0.3740     1.2010 c6         1 051      -0.081400
     28 C6           5.0270     0.4980     1.9530 c6         1 051      -0.042400
     29 C4           5.8420     1.7310     1.4650 c6         1 051      -0.185700
     30 C8           7.1860     1.8820     2.2220 c          1 051       0.720000
     31 O4           7.3540     2.8880     2.8960 o          1 051      -0.753500
     32 O3           8.0250     0.9990     2.1130 o          1 051      -0.753500
     33 C5           6.0370     1.6850    -0.0790 c6         1 051      -0.034400
     34 C2           4.6680     1.5690    -0.8130 c6         1 051      -0.195700
     35 C7           4.8100     1.6160    -2.3490 c          1 051       0.716000
     36 O1           5.3300     0.6580    -2.9070 o          1 051      -0.733500
     37 O2           4.3430     2.5750    -2.9430 o          1 051      -0.733500
     38 H26         -8.3600     2.8950     0.9280 ha         1 051       0.138000
     39 H28         -9.3380    -1.0160    -0.6470 ha         1 051       0.130000
     40 H29         -7.0980    -1.8440     0.0210 ha         1 051       0.151000
     41 H231        -4.6910     0.1120     2.1100 h1         1 051       0.053700
     42 H232        -5.1720    -1.5150     1.5900 h1         1 051       0.053700
     43 H21         -2.5690    -0.2140    -1.8790 ha         1 051       0.121000
     44 H19         -2.8720    -1.4350     2.2610 ha         1 051       0.102000
     45 H14         -0.4390    -0.4680    -3.0660 ha         1 051       0.113000
     46 H13          1.9400    -1.1530    -3.0880 ha         1 051       0.161000
     47 H18         -0.5090    -2.1210     2.2400 ha         1 051       0.112000
     48 H17          1.6180    -2.3750     1.0610 ha         1 051       0.135000
     49 H            4.8760    -0.7330    -1.7380 hn         1 051       0.563000
     50 H1           2.8840     0.4180    -0.8300 h1         1 051       0.006700
     51 H31C         3.0350     1.2280     1.4620 hc         1 051       0.021200
     52 H32C         3.1420    -0.5180     1.5520 hc         1 051       0.021200
     53 H2           4.0950     2.4650    -0.5350 hc         1 051       0.036700
     54 H61C         4.8410     0.5810     3.0320 hc         1 051       0.038700
     55 H62C         5.6140    -0.4200     1.8110 hc         1 051       0.038700
     56 H4           5.2460     2.6260     1.6940 hc         1 051       0.011700
     57 H51C         6.5580     2.5940    -0.4100 hc         1 051       0.052200
     58 H52C         6.6880     0.8420    -0.3520 hc         1 051       0.052200
@<TRIPOS>BOND
     1     1     2 3   
     2     2     3 1   
     3     3     4 ar  
     4     3     7 ar  
     5     4     5 ar  
     6     4    38 1   
     7     5     6 1   
     8     5     9 ar  
     9     7     8 ar  
    10     7    39 1   
    11     8     9 ar  
    12     8    40 1   
    13     9    10 1   
    14    10    11 1   
    15    10    41 1   
    16    10    42 1   
    17    11    12 1   
    18    12    13 ar  
    19    12    17 ar  
    20    13    14 ar  
    21    13    43 1   
    22    14    15 ar  
    23    14    19 ar  
    24    15    16 ar  
    25    15    45 1   
    26    16    21 ar  
    27    16    46 1   
    28    17    18 ar  
    29    17    44 1   
    30    18    19 ar  
    31    18    47 1   
    32    19    20 ar  
    33    20    21 ar  
    34    20    48 1   
    35    21    22 1   
    36    22    23 2   
    37    22    24 2   
    38    22    25 1   
    39    25    26 1   
    40    25    49 1   
    41    26    27 1   
    42    26    34 1   
    43    26    50 1   
    44    27    28 1   
    45    27    51 1   
    46    27    52 1   
    47    28    29 1   
    48    28    54 1   
    49    28    55 1   
    50    29    30 1   
    51    29    33 1   
    52    29    56 1   
    53    30    31 1   
    54    30    32 1   
    55    33    34 1   
    56    33    57 1   
    57    33    58 1   
    58    34    35 1   
    59    34    53 1   
    60    35    36 1   
    61    35    37 1   
@<TRIPOS>SUBSTRUCTURE
     1 051         1 TEMP              0 ****  ****    0 ROOT
