@<TRIPOS>MOLECULE
052
   70    75     1     0     0
SMALL
No Charge or Current Charge


@<TRIPOS>ATOM
      1 C11         -0.8750     1.5490    -0.1020 cc         1 052      -0.265800
      2 C13         -1.5460    -5.1530    -1.3320 ca         1 052      -0.108000
      3 C14         -1.5510    -5.3420     0.0600 ca         1 052      -0.103000
      4 C16         -0.0290    -3.4510     0.3330 ca         1 052       0.105100
      5 C17         -0.0070    -3.2810    -1.0740 ca         1 052      -0.102000
      6 C18         -0.7710    -4.1270    -1.8990 ca         1 052      -0.103000
      7 C19         -4.4290     2.7770     0.4460 ca         1 052      -0.019300
      8 C21         -2.3380     1.5090     0.1050 ca         1 052       0.043200
      9 C22         -3.0960     0.3200     0.1200 ca         1 052      -0.117000
     10 C23         -4.4860     0.3500     0.3070 ca         1 052      -0.088000
     11 C25         -5.1820     1.5700     0.4810 ca         1 052      -0.164600
     12 C26         -6.6910     1.5500     0.6980 c          1 052       0.617700
     13 C28         -9.3530    -0.9610    -0.3890 cx         1 052      -0.137400
     14 C29         -9.6260     0.4620    -0.8110 cx         1 052      -0.137400
     15 C1           8.5650     1.3610    -0.9660 c6         1 052       0.126300
     16 C2           9.9650     0.6800    -0.9360 c6         1 052       0.153100
     17 O1          10.2950     0.2700     0.4120 os         1 052      -0.446000
     18 C3           9.3230    -0.6480     0.9680 c6         1 052       0.153100
     19 C4           7.9070     0.0010     0.9780 c6         1 052       0.126300
     20 N1           7.5030     0.4790    -0.3860 n3         1 052      -0.719600
     21 C5           6.1550     1.1130    -0.4310 c3         1 052       0.153800
     22 C6           4.9630     0.1890    -0.0440 c3         1 052       0.228800
     23 N3          -0.2870    -0.7090     0.6260 nd         1 052      -0.777000
     24 C7           2.4140     0.3430     0.0540 cd         1 052       0.428000
     25 C8           2.1790    -0.9340     0.5010 cc         1 052      -0.354000
     26 C9           0.8490    -1.3820     0.7650 cc         1 052       0.663300
     27 C10         -0.0620     2.6700    -0.4440 cc         1 052       0.427500
     28 C12          0.0250     0.5440     0.1430 cd         1 052       0.476500
     29 N4           1.2580     1.1090    -0.1250 na         1 052       0.045900
     30 N5           1.2500     2.4510    -0.4890 nd         1 052      -0.617100
     31 O2           0.7240    -2.6750     1.2040 os         1 052      -0.362400
     32 C15         -0.7880    -4.4980     0.8860 ca         1 052      -0.102000
     33 C20         -3.0320     2.7250     0.2550 ca         1 052      -0.133000
     34 O3          -7.3060     2.4430     1.2650 o          1 052      -0.595100
     35 N6          -7.3440     0.4170     0.2590 ns         1 052      -0.487900
     36 C27         -8.7570     0.1860     0.3900 cx         1 052       0.052700
     37 H1          -2.1350    -5.8070    -1.9730 ha         1 052       0.116000
     38 H2          -2.1430    -6.1420     0.4980 ha         1 052       0.117000
     39 H3           0.6010    -2.5100    -1.5400 ha         1 052       0.126500
     40 H4          -0.7570    -3.9900    -2.9780 ha         1 052       0.117000
     41 H5          -2.6330    -0.6460    -0.0410 ha         1 052       0.144000
     42 H6          -5.0090    -0.6030     0.3320 ha         1 052       0.109000
     43 H7          -5.4330     4.3320     1.5940 hc         1 052       0.048033
     44 H8          -4.3680     4.9620     0.3380 hc         1 052       0.048033
     45 H9          -5.9190     4.2660    -0.1150 hc         1 052       0.048033
     46 H10        -10.1640    -1.5170     0.0750 hc         1 052       0.076450
     47 H11         -8.6920    -1.5570    -1.0140 hc         1 052       0.076450
     48 H12         -9.1460     0.8260    -1.7160 hc         1 052       0.076450
     49 H13        -10.6210     0.8640    -0.6300 hc         1 052       0.076450
     50 H15          8.3210     1.6180    -2.0070 h1         1 052       0.043450
     51 H16          9.9690    -0.2000    -1.5950 h1         1 052       0.053950
     52 H17         10.7310     1.3810    -1.2970 h1         1 052       0.053950
     53 H18          9.3090    -1.5690     0.3690 h1         1 052       0.053950
     54 H19          9.6210    -0.9110     1.9930 h1         1 052       0.053950
     55 H20          7.1930    -0.7440     1.3570 h1         1 052       0.043450
     56 H21          7.9090     0.8390     1.6910 h1         1 052       0.043450
     57 H23          6.1380     1.9920     0.2280 h1         1 052       0.042700
     58 H24          5.9670     1.4760    -1.4500 h1         1 052       0.042700
     59 H25          4.9990    -0.7080    -0.6770 h1         1 052       0.059700
     60 H26          5.0820    -0.1340     0.9990 h1         1 052       0.059700
     61 H28          2.9900    -1.6270     0.6720 ha         1 052       0.154000
     62 H29         -0.4080     3.6690    -0.6730 h4         1 052       0.047800
     63 H30         -0.7910    -4.6500     1.9630 ha         1 052       0.126500
     64 H31         -2.4780     3.6590     0.2370 ha         1 052       0.106000
     65 H32         -6.7730    -0.2730    -0.2090 hn         1 052       0.321500
     66 H33         -9.1620     0.3980     1.3820 h1         1 052       0.085700
     67 C24         -5.0730     4.1560     0.5740 c3         1 052      -0.049800
     68 N2           3.6560     0.8640    -0.2040 nu         1 052      -0.958200
     69 H14          8.6230     2.3060    -0.4060 h1         1 052       0.043450
     70 H27          3.6320     1.8410    -0.5100 hn         1 052       0.529000
@<TRIPOS>BOND
     1     1     8 1   
     2     1    27 1   
     3     1    28 2   
     4     2     3 ar  
     5     2     6 ar  
     6     2    37 1   
     7     3    32 ar  
     8     3    38 1   
     9     4     5 ar  
    10     4    31 1   
    11     4    32 ar  
    12     5     6 ar  
    13     5    39 1   
    14     6    40 1   
    15     7    11 ar  
    16     7    33 ar  
    17     7    67 1   
    18     8     9 ar  
    19     8    33 ar  
    20     9    10 ar  
    21     9    41 1   
    22    10    11 ar  
    23    10    42 1   
    24    11    12 1   
    25    12    34 2   
    26    12    35 1   
    27    13    14 1   
    28    13    36 1   
    29    13    46 1   
    30    13    47 1   
    31    14    36 1   
    32    14    48 1   
    33    14    49 1   
    34    15    16 1   
    35    15    20 1   
    36    15    50 1   
    37    15    69 1   
    38    16    17 1   
    39    16    51 1   
    40    16    52 1   
    41    17    18 1   
    42    18    19 1   
    43    18    53 1   
    44    18    54 1   
    45    19    20 1   
    46    19    55 1   
    47    19    56 1   
    48    20    21 1   
    49    21    22 1   
    50    21    57 1   
    51    21    58 1   
    52    22    59 1   
    53    22    60 1   
    54    22    68 1   
    55    23    26 2   
    56    23    28 1   
    57    24    25 2   
    58    24    29 1   
    59    24    68 1   
    60    25    26 1   
    61    25    61 1   
    62    26    31 1   
    63    27    30 2   
    64    27    62 1   
    65    28    29 1   
    66    29    30 1   
    67    32    63 1   
    68    33    64 1   
    69    35    36 1   
    70    35    65 1   
    71    36    66 1   
    72    43    67 1   
    73    44    67 1   
    74    45    67 1   
    75    68    70 1   
@<TRIPOS>SUBSTRUCTURE
     1 052         1 TEMP              0 ****  ****    0 ROOT
