@<TRIPOS>MOLECULE
052
   70    75     1     0     0
SMALL
abcg2


@<TRIPOS>ATOM
      1 C11         -0.6940     1.3580     0.1600 cc         1 052      -0.265800
      2 C13         -2.6250    -4.8510    -0.0470 ca         1 052      -0.108000
      3 C14         -1.9760    -4.5420     1.1410 ca         1 052      -0.103000
      4 C16         -0.1520    -3.6170    -0.0970 ca         1 052       0.105100
      5 C17         -0.7850    -3.9180    -1.2910 ca         1 052      -0.102000
      6 C18         -2.0260    -4.5400    -1.2600 ca         1 052      -0.103000
      7 C19         -4.3030     2.4060     0.4550 ca         1 052      -0.019300
      8 C21         -2.1440     1.2690     0.2460 ca         1 052       0.043200
      9 C22         -2.8120     0.0410     0.2330 ca         1 052      -0.117000
     10 C23         -4.1920     0.0010     0.3170 ca         1 052      -0.088000
     11 C25         -4.9520     1.1630     0.4320 ca         1 052      -0.164600
     12 C26         -6.4340     1.0560     0.5850 c          1 052       0.617700
     13 C28         -9.1540    -0.2680    -1.5130 cx         1 052      -0.137400
     14 C29         -9.4130     0.9560    -0.6900 cx         1 052      -0.137400
     15 C1           8.4410     1.6990    -0.7820 c6         1 052       0.126300
     16 C2           9.7870     1.0190    -0.9460 c6         1 052       0.153100
     17 O1          10.2320     0.4510     0.2660 os         1 052      -0.446000
     18 C3           9.2870    -0.4700     0.7640 c6         1 052       0.153100
     19 C4           7.9280     0.1740     0.9630 c6         1 052       0.126300
     20 N1           7.4610     0.7460    -0.2890 n3         1 052      -0.719600
     21 C5           6.1420     1.3290    -0.1880 c3         1 052       0.153800
     22 C6           5.0610     0.2590    -0.1860 c3         1 052       0.228800
     23 N3           0.0900    -1.0140     0.0100 nd         1 052      -0.777000
     24 C7           2.6260     0.2010    -0.0620 cd         1 052       0.428000
     25 C8           2.4910    -1.1760    -0.1130 cc         1 052      -0.354000
     26 C9           1.1920    -1.7070    -0.0730 cc         1 052       0.663300
     27 C10          0.1150     2.5130     0.1670 cc         1 052       0.427500
     28 C12          0.2290     0.3140     0.0620 cd         1 052       0.476500
     29 N4           1.4630     0.9140     0.0240 na         1 052       0.045900
     30 N5           1.4030     2.2530     0.0860 nd         1 052      -0.617100
     31 O2           1.1060    -3.0460    -0.1270 os         1 052      -0.362400
     32 C15         -0.7340    -3.9220     1.1220 ca         1 052      -0.102000
     33 C20         -2.9200     2.4290     0.3490 ca         1 052      -0.133000
     34 O3          -7.0500     1.6740     1.4410 o          1 052      -0.595100
     35 N6          -7.0370     0.2180    -0.2800 ns         1 052      -0.487900
     36 C27         -8.4310    -0.0700    -0.2210 cx         1 052       0.052700
     37 H1          -3.5910    -5.3370    -0.0270 ha         1 052       0.116000
     38 H2          -2.4360    -4.7820     2.0910 ha         1 052       0.117000
     39 H3          -0.3140    -3.6740    -2.2350 ha         1 052       0.126500
     40 H4          -2.5240    -4.7800    -2.1910 ha         1 052       0.117000
     41 H5          -2.2530    -0.8830     0.1570 ha         1 052       0.144000
     42 H6          -4.6830    -0.9650     0.3160 ha         1 052       0.109000
     43 H7          -5.4330     3.8620     1.5730 hc         1 052       0.048033
     44 H8          -4.3860     4.5430     0.3320 hc         1 052       0.048033
     45 H9          -5.8960     3.7560    -0.1150 hc         1 052       0.048033
     46 H10         -9.9100    -1.0410    -1.5510 hc         1 052       0.076450
     47 H11         -8.5880    -0.1490    -2.4290 hc         1 052       0.076450
     48 H12         -9.0180     1.8970    -1.0500 hc         1 052       0.076450
     49 H13        -10.3510     1.0360    -0.1560 hc         1 052       0.076450
     50 H15          8.1170     2.0790    -1.7540 h1         1 052       0.043450
     51 H16          9.7080     0.2490    -1.7260 h1         1 052       0.053950
     52 H17         10.5370     1.7450    -1.2630 h1         1 052       0.053950
     53 H18          9.1870    -1.3270     0.0820 h1         1 052       0.053950
     54 H19          9.6650    -0.8430     1.7170 h1         1 052       0.053950
     55 H20          7.2360    -0.5940     1.3150 h1         1 052       0.043450
     56 H21          7.9940     0.9390     1.7560 h1         1 052       0.043450
     57 H23          6.0360     1.9690     0.7040 h1         1 052       0.042700
     58 H24          5.9860     1.9740    -1.0570 h1         1 052       0.042700
     59 H25          5.1310    -0.3270    -1.1060 h1         1 052       0.059700
     60 H26          5.1940    -0.4310     0.6520 h1         1 052       0.059700
     61 H28          3.3540    -1.8190    -0.1810 ha         1 052       0.154000
     62 H29         -0.2040     3.5420     0.2310 h4         1 052       0.047800
     63 H30         -0.2240    -3.6810     2.0460 ha         1 052       0.126500
     64 H31         -2.4320     3.3970     0.3470 ha         1 052       0.106000
     65 H32         -6.4810    -0.2490    -0.9790 hn         1 052       0.321500
     66 H33         -8.7360    -0.6930     0.6150 h1         1 052       0.085700
     67 C24         -5.0460     3.7080     0.5660 c3         1 052      -0.049800
     68 N2           3.7610     0.8870    -0.0880 nu         1 052      -0.958200
     69 H14          8.5430     2.5670    -0.1090 h1         1 052       0.043450
     70 H27          3.6960     1.8940    -0.0470 hn         1 052       0.529000
@<TRIPOS>BOND
     1     1     8 1   
     2     1    27 1   
     3     1    28 2   
     4     2     3 ar  
     5     2     6 ar  
     6     2    37 1   
     7     3    32 ar  
     8     3    38 1   
     9     4     5 ar  
    10     4    31 1   
    11     4    32 ar  
    12     5     6 ar  
    13     5    39 1   
    14     6    40 1   
    15     7    11 ar  
    16     7    33 ar  
    17     7    67 1   
    18     8     9 ar  
    19     8    33 ar  
    20     9    10 ar  
    21     9    41 1   
    22    10    11 ar  
    23    10    42 1   
    24    11    12 1   
    25    12    34 2   
    26    12    35 1   
    27    13    14 1   
    28    13    36 1   
    29    13    46 1   
    30    13    47 1   
    31    14    36 1   
    32    14    48 1   
    33    14    49 1   
    34    15    16 1   
    35    15    20 1   
    36    15    50 1   
    37    15    69 1   
    38    16    17 1   
    39    16    51 1   
    40    16    52 1   
    41    17    18 1   
    42    18    19 1   
    43    18    53 1   
    44    18    54 1   
    45    19    20 1   
    46    19    55 1   
    47    19    56 1   
    48    20    21 1   
    49    21    22 1   
    50    21    57 1   
    51    21    58 1   
    52    22    59 1   
    53    22    60 1   
    54    22    68 1   
    55    23    26 2   
    56    23    28 1   
    57    24    25 2   
    58    24    29 1   
    59    24    68 1   
    60    25    26 1   
    61    25    61 1   
    62    26    31 1   
    63    27    30 2   
    64    27    62 1   
    65    28    29 1   
    66    29    30 1   
    67    32    63 1   
    68    33    64 1   
    69    35    36 1   
    70    35    65 1   
    71    36    66 1   
    72    43    67 1   
    73    44    67 1   
    74    45    67 1   
    75    68    70 1   
@<TRIPOS>SUBSTRUCTURE
     1 052         1 TEMP              0 ****  ****    0 ROOT
