@<TRIPOS>MOLECULE
053
   45    48     1     0     0
SMALL
bcc


@<TRIPOS>ATOM
      1 C1          -1.0420     2.2720    -0.3710 cc         1 053      -0.043200
      2 C2          -1.5530     2.3010    -1.6370 cd         1 053      -0.085000
      3 C3          -2.1770     3.4530    -2.1730 cd         1 053      -0.234000
      4 C4          -2.2540     4.5530    -1.3880 cc         1 053      -0.013400
      5 N5          -1.7610     4.5260    -0.1270 ns         1 053      -0.438100
      6 C6          -1.1640     3.4410     0.4820 c          1 053       0.708700
      7 C7           3.1490    -1.2720     0.5630 ca         1 053      -0.034300
      8 C8           4.2310    -0.4630     0.2850 ca         1 053      -0.263300
      9 C9           5.0730    -0.7900    -0.7940 ca         1 053       0.649200
     10 N10          4.8600    -1.8590    -1.5570 nb         1 053      -0.758000
     11 C11          3.8130    -2.6290    -1.2770 ca         1 053       0.428200
     12 C12          2.9290    -2.3930    -0.2430 ca         1 053      -0.290300
     13 C13         -2.5870    -2.0430     0.0910 ca         1 053      -0.246300
     14 C14         -1.6590    -2.8920     0.7140 ca         1 053      -0.102000
     15 C15         -0.4290    -2.4230     1.1220 ca         1 053      -0.151000
     16 C16         -2.2920    -0.7090    -0.1340 ca         1 053      -0.037000
     17 C17         -1.0540    -0.2170     0.2620 ca         1 053      -0.081800
     18 C18         -0.1340    -1.0790     0.8980 ca         1 053      -0.040200
     19 N19          0.9770    -0.3500     1.2100 na         1 053      -0.030400
     20 C20          0.8060     0.9460     0.7650 cd         1 053      -0.025300
     21 C21         -0.4300     1.0660     0.1820 cc         1 053      -0.130200
     22 O23          1.8430     2.8950     0.0280 o          1 053      -0.803300
     23 C25         -3.9210    -2.5520    -0.3430 c3         1 053       0.720200
     24 O26          2.5370     2.0140     1.9590 o          1 053      -0.803300
     25 F27         -4.0750    -3.8640    -0.1290 f          1 053      -0.249633
     26 F28         -4.9310    -1.9370     0.2960 f          1 053      -0.249633
     27 F29         -4.1370    -2.3470    -1.6540 f          1 053      -0.249633
     28 O30         -0.8050     3.5130     1.6530 o          1 053      -0.614500
     29 N31          6.1240     0.0140    -1.1240 nv         1 053      -0.943500
     30 H2          -1.4640     1.4200    -2.2620 ha         1 053       0.132000
     31 H3          -2.5680     3.4650    -3.1790 ha         1 053       0.130000
     32 H4          -2.7000     5.4860    -1.7020 h4         1 053       0.127000
     33 HN5         -1.8530     5.3580     0.4390 hn         1 053       0.309500
     34 H8           4.4270     0.4160     0.8850 ha         1 053       0.176000
     35 H11          3.6770    -3.4940    -1.9170 h4         1 053       0.001100
     36 H12          2.1060    -3.0730    -0.0700 ha         1 053       0.137000
     37 H14         -1.8950    -3.9320     0.8870 ha         1 053       0.125000
     38 H15          0.2700    -3.0940     1.6030 ha         1 053       0.125000
     39 H16         -3.0090    -0.0510    -0.6120 ha         1 053       0.137000
     40 H24          1.9590    -1.8330     2.2570 h1         1 053       0.079200
     41 H24A         2.6800    -0.2370     2.3860 h1         1 053       0.079200
     42 HN31         6.4820     0.6290    -0.4130 hn         1 053       0.408300
     43 HN3A         6.8320    -0.3960    -1.7110 hn         1 053       0.408300
     44 C22          1.8290     2.0490     0.9340 c          1 053       0.946800
     45 C24          2.2140    -0.9340     1.6970 c3         1 053       0.089600
@<TRIPOS>BOND
     1     1     2 2   
     2     1     6 1   
     3     1    21 1   
     4     2     3 1   
     5     2    30 1   
     6     3     4 2   
     7     3    31 1   
     8     4     5 1   
     9     4    32 1   
    10     5     6 1   
    11     5    33 1   
    12     6    28 2   
    13     7     8 ar  
    14     7    12 ar  
    15     7    45 1   
    16     8     9 ar  
    17     8    34 1   
    18     9    10 ar  
    19     9    29 1   
    20    10    11 ar  
    21    11    12 ar  
    22    11    35 1   
    23    12    36 1   
    24    13    14 ar  
    25    13    16 ar  
    26    13    23 1   
    27    14    15 ar  
    28    14    37 1   
    29    15    18 ar  
    30    15    38 1   
    31    16    17 ar  
    32    16    39 1   
    33    17    18 ar  
    34    17    21 1   
    35    18    19 1   
    36    19    20 1   
    37    19    45 1   
    38    20    21 2   
    39    20    44 1   
    40    22    44 1   
    41    23    25 1   
    42    23    26 1   
    43    23    27 1   
    44    24    44 1   
    45    29    42 1   
    46    29    43 1   
    47    40    45 1   
    48    41    45 1   
@<TRIPOS>SUBSTRUCTURE
     1 053         1 TEMP              0 ****  ****    0 ROOT
