@<TRIPOS>MOLECULE
053
   45    48     1     0     0
SMALL
No Charge or Current Charge


@<TRIPOS>ATOM
      1 C1          -1.3910     2.3830    -0.4050 cc         1 053      -0.043200
      2 C2          -2.2910     2.1890    -1.4460 cd         1 053      -0.135000
      3 C3          -3.0770     3.2970    -1.9300 cd         1 053      -0.284000
      4 C4          -2.9370     4.5360    -1.3460 cc         1 053      -0.063400
      5 N5          -2.0630     4.7020    -0.2880 ns         1 053      -0.371100
      6 C6          -1.2830     3.7180     0.2710 c          1 053       0.566200
      7 C7           3.3400    -0.9940     0.4730 ca         1 053      -0.034300
      8 C8           4.6960    -1.1250     0.8220 ca         1 053      -0.180000
      9 C9           5.6050    -1.5400    -0.1570 ca         1 053       0.583900
     10 N10          5.2960    -1.8360    -1.4110 nb         1 053      -0.758000
     11 C11          3.9940    -1.7170    -1.7580 ca         1 053       0.362900
     12 C12          2.9940    -1.3060    -0.8590 ca         1 053      -0.207000
     13 C13         -2.4950    -2.1140     0.1410 ca         1 053      -0.246300
     14 C14         -1.4130    -2.8600     0.6730 ca         1 053      -0.084000
     15 C15         -0.1880    -2.2340     0.9710 ca         1 053      -0.133000
     16 C16         -2.3260    -0.7290    -0.0970 ca         1 053      -0.019000
     17 C17         -1.0740    -0.1390     0.1590 ca         1 053      -0.081800
     18 C18         -0.0530    -0.8580     0.7150 ca         1 053      -0.040200
     19 N19          1.0360    -0.0380     0.9800 na         1 053      -0.059700
     20 C20          0.7200     1.2570     0.4770 cd         1 053      -0.025300
     21 C21         -0.6250     1.2320     0.0480 cc         1 053      -0.130200
     22 O23          1.4650     3.2610    -0.5540 o          1 053      -0.698000
     23 C25         -3.8460    -2.7810    -0.1370 c3         1 053       0.356300
     24 O26          2.8060     2.3160     0.8060 o          1 053      -0.698000
     25 F27         -3.7270    -4.1040    -0.3960 f          1 053      -0.128333
     26 F28         -4.6810    -2.6590     0.9180 f          1 053      -0.128333
     27 F29         -4.4740    -2.2350    -1.2040 f          1 053      -0.128333
     28 O30         -0.6410     3.9510     1.2880 o          1 053      -0.539000
     29 N31          6.9140    -1.7050     0.0620 nv         1 053      -1.053900
     30 H2          -2.3610     1.2300    -1.9500 ha         1 053       0.182000
     31 H3          -3.7640     3.1620    -2.7620 ha         1 053       0.180000
     32 H4          -3.4670     5.4430    -1.6270 h4         1 053       0.177000
     33 HN5         -1.9900     5.6080     0.1610 hn         1 053       0.309500
     34 H8           5.0400    -0.9050     1.8280 ha         1 053       0.158000
     35 H11          3.7440    -1.9620    -2.7890 h4         1 053       0.001100
     36 H12          1.9690    -1.2390    -1.2100 ha         1 053       0.119000
     37 H14         -1.5250    -3.9230     0.8770 ha         1 053       0.107000
     38 H15          0.6240    -2.8150     1.3980 ha         1 053       0.107000
     39 H16         -3.1630    -0.1340    -0.4500 ha         1 053       0.119000
     40 H24          2.1100    -1.3860     2.1920 h1         1 053       0.079200
     41 H24A         2.7610     0.2350     2.1500 h1         1 053       0.079200
     42 HN31         7.2190    -1.8430     1.0200 hn         1 053       0.463500
     43 HN3A         7.4130    -2.2170    -0.6550 hn         1 053       0.463500
     44 C22          1.7130     2.3800     0.2590 c          1 053       0.736200
     45 C24          2.3170    -0.5450     1.5210 c3         1 053       0.118900
@<TRIPOS>BOND
     1     1     2 2   
     2     1     6 1   
     3     1    21 1   
     4     2     3 1   
     5     2    30 1   
     6     3     4 2   
     7     3    31 1   
     8     4     5 1   
     9     4    32 1   
    10     5     6 1   
    11     5    33 1   
    12     6    28 2   
    13     7     8 ar  
    14     7    12 ar  
    15     7    45 1   
    16     8     9 ar  
    17     8    34 1   
    18     9    10 ar  
    19     9    29 1   
    20    10    11 ar  
    21    11    12 ar  
    22    11    35 1   
    23    12    36 1   
    24    13    14 ar  
    25    13    16 ar  
    26    13    23 1   
    27    14    15 ar  
    28    14    37 1   
    29    15    18 ar  
    30    15    38 1   
    31    16    17 ar  
    32    16    39 1   
    33    17    18 ar  
    34    17    21 1   
    35    18    19 1   
    36    19    20 1   
    37    19    45 1   
    38    20    21 2   
    39    20    44 1   
    40    22    44 1   
    41    23    25 1   
    42    23    26 1   
    43    23    27 1   
    44    24    44 1   
    45    29    42 1   
    46    29    43 1   
    47    40    45 1   
    48    41    45 1   
@<TRIPOS>SUBSTRUCTURE
     1 053         1 TEMP              0 ****  ****    0 ROOT
