@<TRIPOS>MOLECULE
054
   48    52     1     0     0
SMALL
bcc


@<TRIPOS>ATOM
      1 C1          -0.5160     3.5530    -0.0500 ca         1 054      -0.243300
      2 C2          -1.8750     3.4810     0.3140 ca         1 054      -0.101000
      3 C3          -2.4310     2.3070     0.7710 ca         1 054      -0.142000
      4 C4           0.3050     2.4480     0.0430 ca         1 054      -0.021000
      5 C5          -0.2450     1.2520     0.5040 ca         1 054      -0.079800
      6 C6          -1.6040     1.1860     0.8670 ca         1 054      -0.037200
      7 N7          -1.8720    -0.0810     1.3010 na         1 054      -0.023400
      8 C8          -0.7270    -0.8450     1.2050 cc         1 054      -0.049300
      9 C9           0.2750    -0.0480     0.7210 cd         1 054      -0.044600
     10 C10         -0.5680    -2.2810     1.6620 c          1 054       0.944800
     11 O11          0.4080    -2.8760     1.1790 o          1 054      -0.805300
     12 O12         -1.3910    -2.7130     2.4900 o          1 054      -0.805300
     13 C13         -3.2190    -0.5590     1.5710 c3         1 054       0.086600
     14 C14         -3.8830    -1.0730     0.3170 ca         1 054      -0.034300
     15 C15          0.0100     4.8650    -0.5280 c3         1 054       0.721200
     16 C16         -4.6390    -0.2300    -0.5020 ca         1 054      -0.291300
     17 C17         -5.1810    -0.7630    -1.6550 ca         1 054       0.430200
     18 N18         -5.0340    -2.0280    -2.0360 nb         1 054      -0.757000
     19 C19         -4.3250    -2.8390    -1.2520 ca         1 054       0.652200
     20 C20         -3.7310    -2.3920    -0.0590 ca         1 054      -0.265300
     21 N21          1.6110    -0.4400     0.5000 n          1 054      -0.376600
     22 C22          2.4410    -0.4820     1.6240 c          1 054       0.852500
     23 N23          3.6920    -0.9760     1.4310 ns         1 054      -0.451100
     24 C24          1.9190    -0.9280    -0.7650 c          1 054       0.775100
     25 O25          1.1110    -0.9050    -1.6660 o          1 054      -0.581500
     26 O26          2.0600    -0.0830     2.7030 o          1 054      -0.616500
     27 C27          3.8610    -1.9320    -2.0230 cc         1 054      -0.042100
     28 C28          3.2770    -1.4310    -0.8930 cd         1 054      -0.193600
     29 C29          4.1490    -1.4510     0.2250 cd         1 054       0.104600
     30 C30          5.3790    -1.9610    -0.0650 cc         1 054      -0.219100
     31 S31          5.4570    -2.4170    -1.7180 ss         1 054      -0.073800
     32 F32         -0.6930     5.3380    -1.5710 f          1 054      -0.248967
     33 F33         -0.0590     5.8100     0.4240 f          1 054      -0.248967
     34 F34          1.2860     4.8040    -0.9200 f          1 054      -0.248967
     35 N35         -4.2350    -4.1450    -1.6300 nv         1 054      -0.952500
     36 H2          -2.5070     4.3560     0.2410 ha         1 054       0.123000
     37 H3          -3.4750     2.2770     1.0520 ha         1 054       0.126000
     38 H4           1.3520     2.4910    -0.2280 ha         1 054       0.142000
     39 H13         -3.1590    -1.3390     2.3220 h1         1 054       0.083200
     40 H13A        -3.7900     0.2680     1.9930 h1         1 054       0.083200
     41 H16         -4.8110     0.8080    -0.2520 ha         1 054       0.133000
     42 H17         -5.7720    -0.1360    -2.3140 h4         1 054       0.001100
     43 H20         -3.1660    -3.0780     0.5590 ha         1 054       0.179000
     44 HN23         4.2960    -0.9970     2.2400 hn         1 054       0.337500
     45 H27          3.4250    -2.0330    -3.0050 h4         1 054       0.183000
     46 H30          6.2240    -2.0910     0.5920 h4         1 054       0.168000
     47 HN35        -4.4490    -4.3480    -2.5920 hn         1 054       0.413800
     48 HN3A        -3.4870    -4.6970    -1.2440 hn         1 054       0.413800
@<TRIPOS>BOND
     1     1     2 ar  
     2     1     4 ar  
     3     1    15 1   
     4     2     3 ar  
     5     2    36 1   
     6     3     6 ar  
     7     3    37 1   
     8     4     5 ar  
     9     4    38 1   
    10     5     6 ar  
    11     5     9 1   
    12     6     7 1   
    13     7     8 1   
    14     7    13 1   
    15     8     9 2   
    16     8    10 1   
    17     9    21 1   
    18    10    11 1   
    19    10    12 1   
    20    13    14 1   
    21    13    39 1   
    22    13    40 1   
    23    14    16 ar  
    24    14    20 ar  
    25    15    32 1   
    26    15    33 1   
    27    15    34 1   
    28    16    17 ar  
    29    16    41 1   
    30    17    18 ar  
    31    17    42 1   
    32    18    19 ar  
    33    19    20 ar  
    34    19    35 1   
    35    20    43 1   
    36    21    22 1   
    37    21    24 1   
    38    22    23 1   
    39    22    26 2   
    40    23    29 1   
    41    23    44 1   
    42    24    25 2   
    43    24    28 1   
    44    27    28 2   
    45    27    31 1   
    46    27    45 1   
    47    28    29 1   
    48    29    30 2   
    49    30    31 1   
    50    30    46 1   
    51    35    47 1   
    52    35    48 1   
@<TRIPOS>SUBSTRUCTURE
     1 054         1 TEMP              0 ****  ****    0 ROOT
