@<TRIPOS>MOLECULE
054
   48    52     1     0     0
SMALL
No Charge or Current Charge


@<TRIPOS>ATOM
      1 C1          -0.3370     3.1310    -0.7400 ca         1 054      -0.243300
      2 C2          -1.7250     3.1410    -0.4290 ca         1 054      -0.083000
      3 C3          -2.3250     2.0550     0.2450 ca         1 054      -0.124000
      4 C4           0.4500     2.0170    -0.3580 ca         1 054      -0.003000
      5 C5          -0.1840     0.9550     0.3010 ca         1 054      -0.079800
      6 C6          -1.5140     0.9670     0.6040 ca         1 054      -0.037200
      7 N7          -1.8420    -0.2120     1.2720 na         1 054      -0.052700
      8 C8          -0.7040    -1.0540     1.4000 cc         1 054      -0.049300
      9 C9           0.3150    -0.2990     0.8090 cd         1 054      -0.044600
     10 C10         -0.5710    -2.4370     1.9670 c          1 054       0.734200
     11 O11          0.4980    -3.0270     1.8880 o          1 054      -0.700000
     12 O12         -1.5560    -2.9640     2.4640 o          1 054      -0.700000
     13 C13         -3.2310    -0.4830     1.7000 c3         1 054       0.115900
     14 C14         -4.1490    -1.0490     0.6140 ca         1 054      -0.034300
     15 C15          0.3060     4.3210    -1.4580 c3         1 054       0.357300
     16 C16         -5.5380    -1.1200     0.8330 ca         1 054      -0.208000
     17 C17         -6.3760    -1.6410    -0.1700 ca         1 054       0.364900
     18 N18         -5.9140    -2.0880    -1.3580 nb         1 054      -0.757000
     19 C19         -4.6040    -2.0190    -1.5500 ca         1 054       0.586900
     20 C20         -3.6770    -1.5210    -0.6280 ca         1 054      -0.182000
     21 N21          1.6700    -0.6310     0.7160 n          1 054      -0.242600
     22 C22          2.4370    -0.6580     1.9060 c          1 054       0.643000
     23 N23          3.7640    -0.9830     1.7940 ns         1 054      -0.497600
     24 C24          2.2070    -0.9140    -0.5610 c          1 054       0.632600
     25 O25          1.5400    -0.8990    -1.5910 o          1 054      -0.506000
     26 O26          1.9800    -0.3790     3.0040 o          1 054      -0.541000
     27 C27          4.4020    -1.5490    -1.6630 cc         1 054      -0.169000
     28 C28          3.6490    -1.2420    -0.5520 cd         1 054      -0.193600
     29 C29          4.3960    -1.2710     0.6270 cd         1 054       0.104600
     30 C30          5.7120    -1.5880     0.4930 cc         1 054      -0.346000
     31 S31          6.0760    -1.8770    -1.2080 ss         1 054       0.216000
     32 F32         -0.5500     4.9330    -2.3080 f          1 054      -0.127667
     33 F33          0.7250     5.2570    -0.5770 f          1 054      -0.127667
     34 F34          1.3840     3.9590    -2.1920 f          1 054      -0.127667
     35 N35         -4.2780    -2.4840    -2.7590 nv         1 054      -1.062900
     36 H2          -2.3420     3.9930    -0.7060 ha         1 054       0.105000
     37 H3          -3.3870     2.0740     0.4740 ha         1 054       0.108000
     38 H4           1.5170     1.9780    -0.5670 ha         1 054       0.124000
     39 H13         -3.2190    -1.1700     2.5520 h1         1 054       0.083200
     40 H13A        -3.6630     0.4530     2.0750 h1         1 054       0.083200
     41 H16         -5.9710    -0.7760     1.7680 ha         1 054       0.115000
     42 H17         -7.4530    -1.7000    -0.0150 h4         1 054       0.001100
     43 H20         -2.6230    -1.5080    -0.8830 ha         1 054       0.161000
     44 HN23         4.2710    -0.9890     2.6710 hn         1 054       0.451000
     45 H27          4.1060    -1.6080    -2.7030 h4         1 054       0.165000
     46 H30          6.4880    -1.6750     1.2420 h4         1 054       0.150000
     47 HN35        -5.0600    -2.5960    -3.3940 hn         1 054       0.469000
     48 HN3A        -3.4030    -2.1760    -3.1670 hn         1 054       0.469000
@<TRIPOS>BOND
     1     1     2 ar  
     2     1     4 ar  
     3     1    15 1   
     4     2     3 ar  
     5     2    36 1   
     6     3     6 ar  
     7     3    37 1   
     8     4     5 ar  
     9     4    38 1   
    10     5     6 ar  
    11     5     9 1   
    12     6     7 1   
    13     7     8 1   
    14     7    13 1   
    15     8     9 2   
    16     8    10 1   
    17     9    21 1   
    18    10    11 1   
    19    10    12 1   
    20    13    14 1   
    21    13    39 1   
    22    13    40 1   
    23    14    16 ar  
    24    14    20 ar  
    25    15    32 1   
    26    15    33 1   
    27    15    34 1   
    28    16    17 ar  
    29    16    41 1   
    30    17    18 ar  
    31    17    42 1   
    32    18    19 ar  
    33    19    20 ar  
    34    19    35 1   
    35    20    43 1   
    36    21    22 1   
    37    21    24 1   
    38    22    23 1   
    39    22    26 2   
    40    23    29 1   
    41    23    44 1   
    42    24    25 2   
    43    24    28 1   
    44    27    28 2   
    45    27    31 1   
    46    27    45 1   
    47    28    29 1   
    48    29    30 2   
    49    30    31 1   
    50    30    46 1   
    51    35    47 1   
    52    35    48 1   
@<TRIPOS>SUBSTRUCTURE
     1 054         1 TEMP              0 ****  ****    0 ROOT
