@<TRIPOS>MOLECULE
055
   56    59     1     0     0
SMALL
bcc


@<TRIPOS>ATOM
      1 CL1         -4.5470     0.4250     1.0120 cl         1 055      -0.097400
      2 C30         -4.1870     1.5710    -0.2330 ca         1 055       0.034400
      3 C29         -5.2320     2.2580    -0.8300 ca         1 055      -0.130000
      4 C28         -4.9410     3.2050    -1.7980 ca         1 055      -0.134000
      5 C27         -3.6270     3.4540    -2.1610 ca         1 055      -0.131000
      6 C26         -2.5760     2.7540    -1.5760 ca         1 055      -0.067300
      7 C31         -1.1580     3.0170    -1.9840 c3         1 055      -0.049800
      8 C25         -2.8600     1.7980    -0.5960 ca         1 055       0.096600
      9 N24         -1.8130     1.1010     0.0290 ns         1 055      -0.520100
     10 C23         -1.6140    -0.2340    -0.1870 c          1 055       0.801100
     11 O33         -2.2770    -0.8690    -0.9890 o          1 055      -0.653100
     12 N22         -0.5990    -0.7400     0.5790 ns         1 055      -0.505100
     13 C5          -0.1540    -2.0580     0.6340 ca         1 055       0.142600
     14 C6          -0.8450    -3.1320     0.1200 ca         1 055      -0.195000
     15 C1          -0.3590    -4.4500     0.2600 ca         1 055       0.006000
     16 C7          -1.0670    -5.5560    -0.2700 ca         1 055      -0.124000
     17 C8          -0.5900    -6.8290    -0.1150 ca         1 055      -0.131000
     18 C9           0.6190    -7.0640     0.5760 ca         1 055      -0.158000
     19 C2           0.8510    -4.6910     0.9550 ca         1 055      -0.081000
     20 C10          1.3240    -6.0150     1.0990 ca         1 055      -0.098000
     21 C3           1.5380    -3.5820     1.4900 ca         1 055      -0.062000
     22 C4           1.0790    -2.3060     1.3200 ca         1 055      -0.176600
     23 C11          1.8650    -1.1840     1.9260 c          1 055       0.678700
     24 O14          2.0900    -1.1250     3.1250 o          1 055      -0.588100
     25 N12          2.2970    -0.2630     1.0490 ns         1 055      -0.547900
     26 C13          2.7160     1.0520     1.4760 c3         1 055      -0.001000
     27 C16          1.5850     1.8100     2.2320 c          1 055       0.945600
     28 O21          1.9480     2.7720     2.9120 o          1 055      -0.819800
     29 O20          0.4070     1.4100     2.0560 o          1 055      -0.819800
     30 C46          3.1090     1.8820     0.2810 ca         1 055      -0.044300
     31 C47          2.2240     2.0500    -0.7840 ca         1 055      -0.120500
     32 C48          2.5710     2.8350    -1.8730 ca         1 055      -0.138500
     33 C49          3.8050     3.4720    -1.9100 ca         1 055      -0.148000
     34 C50          4.6880     3.3160    -0.8510 ca         1 055      -0.138500
     35 C51          4.3410     2.5250     0.2370 ca         1 055      -0.120500
     36 H29         -6.2530     2.0630    -0.5340 ha         1 055       0.137000
     37 H28         -5.7470     3.7550    -2.2670 ha         1 055       0.123000
     38 H27         -3.4120     4.1970    -2.9190 ha         1 055       0.125000
     39 H31         -0.5610     3.3900    -1.1510 hc         1 055       0.048367
     40 H31A        -0.6740     2.1070    -2.3440 hc         1 055       0.048367
     41 H31B        -1.1140     3.7580    -2.7810 hc         1 055       0.048367
     42 HN24        -1.2120     1.6010     0.6750 hn         1 055       0.384500
     43 HN22        -0.1210    -0.0490     1.1740 hn         1 055       0.398500
     44 H6          -1.7840    -2.9860    -0.3890 ha         1 055       0.166000
     45 H7          -1.9940    -5.3800    -0.8020 ha         1 055       0.130000
     46 H8          -1.1420    -7.6660    -0.5230 ha         1 055       0.117000
     47 H9           0.9830    -8.0770     0.6890 ha         1 055       0.117000
     48 H10          2.2520    -6.1880     1.6320 ha         1 055       0.123000
     49 H3           2.4610    -3.7500     2.0320 ha         1 055       0.137000
     50 HN12         2.1280    -0.4220     0.0680 hn         1 055       0.306500
     51 H13          3.5750     0.9680     2.1460 h1         1 055       0.072700
     52 H47          1.2510     1.5720    -0.7650 ha         1 055       0.135000
     53 H48          1.8730     2.9540    -2.6920 ha         1 055       0.115500
     54 H49          4.0760     4.0850    -2.7600 ha         1 055       0.113000
     55 H50          5.6520     3.8090    -0.8690 ha         1 055       0.115500
     56 H51          5.0380     2.4030     1.0570 ha         1 055       0.135000
@<TRIPOS>BOND
     1     1     2 1   
     2     2     3 ar  
     3     2     8 ar  
     4     3     4 ar  
     5     3    36 1   
     6     4     5 ar  
     7     4    37 1   
     8     5     6 ar  
     9     5    38 1   
    10     6     7 1   
    11     6     8 ar  
    12     7    39 1   
    13     7    40 1   
    14     7    41 1   
    15     8     9 1   
    16     9    10 1   
    17     9    42 1   
    18    10    11 2   
    19    10    12 1   
    20    12    13 1   
    21    12    43 1   
    22    13    14 ar  
    23    13    22 ar  
    24    14    15 ar  
    25    14    44 1   
    26    15    16 ar  
    27    15    19 ar  
    28    16    17 ar  
    29    16    45 1   
    30    17    18 ar  
    31    17    46 1   
    32    18    20 ar  
    33    18    47 1   
    34    19    20 ar  
    35    19    21 ar  
    36    20    48 1   
    37    21    22 ar  
    38    21    49 1   
    39    22    23 1   
    40    23    24 2   
    41    23    25 1   
    42    25    26 1   
    43    25    50 1   
    44    26    27 1   
    45    26    30 1   
    46    26    51 1   
    47    27    28 1   
    48    27    29 1   
    49    30    31 ar  
    50    30    35 ar  
    51    31    32 ar  
    52    31    52 1   
    53    32    33 ar  
    54    32    53 1   
    55    33    34 ar  
    56    33    54 1   
    57    34    35 ar  
    58    34    55 1   
    59    35    56 1   
@<TRIPOS>SUBSTRUCTURE
     1 055         1 TEMP              0 ****  ****    0 ROOT
