@<TRIPOS>MOLECULE
055
   56    59     1     0     0
SMALL
No Charge or Current Charge


@<TRIPOS>ATOM
      1 Cl1         -4.7900    -0.0220     0.3770 cl         1 055      -0.189000
      2 C30         -4.2940     1.4190    -0.5170 ca         1 055       0.126000
      3 C29         -5.3010     2.2520    -1.0310 ca         1 055      -0.112000
      4 C28         -4.9630     3.4440    -1.6890 ca         1 055      -0.116000
      5 C27         -3.6160     3.8120    -1.8220 ca         1 055      -0.113000
      6 C26         -2.5930     2.9890    -1.3090 ca         1 055      -0.067300
      7 C31         -1.1390     3.4170    -1.4790 c3         1 055      -0.049800
      8 C25         -2.9290     1.7720    -0.6670 ca         1 055       0.004000
      9 N24         -1.8960     0.9460    -0.1510 ns         1 055      -0.194000
     10 C23         -1.6310    -0.3860    -0.4020 c          1 055       0.667100
     11 O33         -2.2150    -1.0290    -1.2670 o          1 055      -0.653100
     12 N22         -0.6240    -0.8870     0.4070 ns         1 055      -0.179000
     13 C5          -0.0830    -2.2000     0.5620 ca         1 055       0.050000
     14 C6          -0.7920    -3.3380     0.1170 ca         1 055      -0.177000
     15 C1          -0.3100    -4.6360     0.3600 ca         1 055       0.006000
     16 C7          -1.0300    -5.7580    -0.0940 ca         1 055      -0.106000
     17 C8          -0.5500    -7.0540     0.1590 ca         1 055      -0.113000
     18 C9           0.6490    -7.2330     0.8700 ca         1 055      -0.140000
     19 C2           0.8900    -4.8160     1.0750 ca         1 055      -0.081000
     20 C10          1.3680    -6.1160     1.3290 ca         1 055      -0.080000
     21 C3           1.6010    -3.6960     1.5320 ca         1 055      -0.044000
     22 C4           1.1400    -2.3890     1.2660 ca         1 055      -0.176600
     23 C11          1.9670    -1.2390     1.7760 c          1 055       0.611700
     24 O14          2.4480    -1.2280     2.9010 o          1 055      -0.588100
     25 N12          2.1000    -0.1760     0.9140 ns         1 055      -0.480900
     26 C13          2.5250     1.1840     1.3170 c3         1 055      -0.001000
     27 C16          1.3540     1.9420     2.0220 c          1 055       0.735000
     28 O21          1.6350     2.7790     2.8700 o          1 055      -0.714500
     29 O20          0.2030     1.6590     1.7070 o          1 055      -0.714500
     30 C46          3.0560     1.9730     0.1230 ca         1 055      -0.044300
     31 C47          2.2790     2.1140    -1.0460 ca         1 055      -0.102500
     32 C48          2.7680     2.8460    -2.1410 ca         1 055      -0.120500
     33 C49          4.0390     3.4400    -2.0780 ca         1 055      -0.130000
     34 C50          4.8200     3.3030    -0.9180 ca         1 055      -0.120500
     35 C51          4.3300     2.5710     0.1780 ca         1 055      -0.102500
     36 H29         -6.3460     1.9780    -0.9090 ha         1 055       0.119000
     37 H28         -5.7450     4.0880    -2.0860 ha         1 055       0.105000
     38 H27         -3.3660     4.7420    -2.3280 ha         1 055       0.107000
     39 H31         -0.6070     3.4170    -0.5200 hc         1 055       0.048367
     40 H31A        -0.6120     2.7400    -2.1620 hc         1 055       0.048367
     41 H31B        -1.0570     4.4280    -1.8940 hc         1 055       0.048367
     42 HN24        -1.2880     1.3900     0.5300 hn         1 055       0.218000
     43 HN22        -0.2320    -0.1970     1.0390 hn         1 055       0.232000
     44 H6          -1.7420    -3.2350    -0.3970 ha         1 055       0.148000
     45 H7          -1.9590    -5.6270    -0.6430 ha         1 055       0.112000
     46 H8          -1.1070    -7.9190    -0.1940 ha         1 055       0.099000
     47 H9           1.0200    -8.2360     1.0670 ha         1 055       0.099000
     48 H10          2.2940    -6.2630     1.8800 ha         1 055       0.105000
     49 H3           2.5290    -3.8380     2.0830 ha         1 055       0.119000
     50 HN12         1.7400    -0.3090    -0.0220 hn         1 055       0.306500
     51 H13          3.3260     1.0840     2.0590 h1         1 055       0.072700
     52 H47          1.2950     1.6570    -1.1050 ha         1 055       0.117000
     53 H48          2.1620     2.9510    -3.0380 ha         1 055       0.097500
     54 H49          4.4180     4.0070    -2.9260 ha         1 055       0.095000
     55 H50          5.8040     3.7630    -0.8680 ha         1 055       0.097500
     56 H51          4.9420     2.4720     1.0720 ha         1 055       0.117000
@<TRIPOS>BOND
     1     1     2 1   
     2     2     3 ar  
     3     2     8 ar  
     4     3     4 ar  
     5     3    36 1   
     6     4     5 ar  
     7     4    37 1   
     8     5     6 ar  
     9     5    38 1   
    10     6     7 1   
    11     6     8 ar  
    12     7    39 1   
    13     7    40 1   
    14     7    41 1   
    15     8     9 1   
    16     9    10 1   
    17     9    42 1   
    18    10    11 2   
    19    10    12 1   
    20    12    13 1   
    21    12    43 1   
    22    13    14 ar  
    23    13    22 ar  
    24    14    15 ar  
    25    14    44 1   
    26    15    16 ar  
    27    15    19 ar  
    28    16    17 ar  
    29    16    45 1   
    30    17    18 ar  
    31    17    46 1   
    32    18    20 ar  
    33    18    47 1   
    34    19    20 ar  
    35    19    21 ar  
    36    20    48 1   
    37    21    22 ar  
    38    21    49 1   
    39    22    23 1   
    40    23    24 2   
    41    23    25 1   
    42    25    26 1   
    43    25    50 1   
    44    26    27 1   
    45    26    30 1   
    46    26    51 1   
    47    27    28 1   
    48    27    29 1   
    49    30    31 ar  
    50    30    35 ar  
    51    31    32 ar  
    52    31    52 1   
    53    32    33 ar  
    54    32    53 1   
    55    33    34 ar  
    56    33    54 1   
    57    34    35 ar  
    58    34    55 1   
    59    35    56 1   
@<TRIPOS>SUBSTRUCTURE
     1 055         1 TEMP              0 ****  ****    0 ROOT
