@<TRIPOS>MOLECULE
056
   31    32     1     0     0
SMALL
abcg2


@<TRIPOS>ATOM
      1 O17         -6.5190    -1.3050     1.3710 o          1 056      -0.719000
      2 C16         -5.4930    -1.4230     0.6740 c          1 056       0.713600
      3 O18         -5.0310    -2.4760     0.1950 o          1 056      -0.719000
      4 C12         -4.7220    -0.1410     0.3760 ca         1 056      -0.138600
      5 C11         -3.5650    -0.1720    -0.3970 ca         1 056      -0.061000
      6 C10         -2.8540     0.9890    -0.6860 ca         1 056      -0.129300
      7 C15         -3.3060     2.2040    -0.1770 ca         1 056      -0.118000
      8 C14         -4.4580     2.2490     0.5960 ca         1 056      -0.151000
      9 C13         -5.1610     1.0850     0.8700 ca         1 056      -0.073000
     10 S8          -0.1910     0.7510    -0.3500 ss         1 056      -0.421000
     11 C6           4.0690    -0.9700     0.2580 ca         1 056      -0.101000
     12 C9          -1.5950     0.9290    -1.4980 c3         1 056       0.138900
     13 C1           2.8960    -0.7540    -0.4490 ca         1 056       0.137000
     14 CL1          1.9690    -2.1370    -0.9170 cl         1 056      -0.173000
     15 C2           2.4610     0.5260    -0.7880 ca         1 056      -0.045300
     16 C7           1.1910     0.7730    -1.5370 c3         1 056       0.090900
     17 C3           3.2440     1.5980    -0.3690 ca         1 056      -0.088000
     18 C4           4.4190     1.4170     0.3420 ca         1 056      -0.108000
     19 C5           4.8200     0.1270     0.6470 ca         1 056       0.122000
     20 CL2          6.2850    -0.1290     1.5310 cl         1 056      -0.211000
     21 H6           4.3880    -1.9740     0.4980 ha         1 056       0.141000
     22 H4           5.0100     2.2680     0.6500 ha         1 056       0.127000
     23 H3           2.9260     2.6040    -0.6090 ha         1 056       0.122000
     24 H71C         1.0220     0.0110    -2.3000 h1         1 056       0.065200
     25 H72C         1.2260     1.7450    -2.0300 h1         1 056       0.065200
     26 H91C        -1.6080     0.0780    -2.1810 h1         1 056       0.050700
     27 H92C        -1.4600     1.8380    -2.0860 h1         1 056       0.050700
     28 H15         -2.7600     3.1150    -0.3890 ha         1 056       0.085000
     29 H11         -3.2150    -1.1210    -0.7840 ha         1 056       0.131000
     30 H14         -4.8080     3.1980     0.9830 ha         1 056       0.087000
     31 H13         -6.0590     1.1230     1.4720 ha         1 056       0.128000
@<TRIPOS>BOND
     1     1     2 1   
     2     2     3 1   
     3     2     4 1   
     4     4     5 ar  
     5     4     9 ar  
     6     5     6 ar  
     7     5    29 1   
     8     6     7 ar  
     9     6    12 1   
    10     7     8 ar  
    11     7    28 1   
    12     8     9 ar  
    13     8    30 1   
    14     9    31 1   
    15    10    12 1   
    16    10    16 1   
    17    11    13 ar  
    18    11    19 ar  
    19    11    21 1   
    20    12    26 1   
    21    12    27 1   
    22    13    14 1   
    23    13    15 ar  
    24    15    16 1   
    25    15    17 ar  
    26    16    24 1   
    27    16    25 1   
    28    17    18 ar  
    29    17    23 1   
    30    18    19 ar  
    31    18    22 1   
    32    19    20 1   
@<TRIPOS>SUBSTRUCTURE
     1 056         1 TEMP              0 ****  ****    0 ROOT
