@<TRIPOS>MOLECULE
056
   31    32     1     0     0
SMALL
No Charge or Current Charge


@<TRIPOS>ATOM
      1 O17         -6.5550    -1.4020     1.3620 o          1 056      -0.719000
      2 C16         -5.5080    -1.4500     0.7300 c          1 056       0.713600
      3 O18         -5.0070    -2.5020     0.3590 o          1 056      -0.719000
      4 C12         -4.8030    -0.1470     0.3890 ca         1 056      -0.138600
      5 C11         -3.5750    -0.1520    -0.3140 ca         1 056      -0.061000
      6 C10         -2.9180     1.0530    -0.6340 ca         1 056      -0.129300
      7 C15         -3.4870     2.2790    -0.2460 ca         1 056      -0.118000
      8 C14         -4.7040     2.2990     0.4520 ca         1 056      -0.151000
      9 C13         -5.3590     1.0970     0.7690 ca         1 056      -0.073000
     10 S8          -0.1860     0.7280    -0.2410 ss         1 056      -0.421000
     11 C6           4.2320    -1.0280     0.1590 ca         1 056      -0.101000
     12 C9          -1.5990     1.0250    -1.3940 c3         1 056       0.138900
     13 C1           3.0060    -0.8250    -0.4960 ca         1 056       0.137000
     14 Cl1          2.0730    -2.2390    -0.9910 cl         1 056      -0.173000
     15 C2           2.5400     0.4880    -0.7440 ca         1 056      -0.045300
     16 C7           1.2130     0.7450    -1.4490 c3         1 056       0.090900
     17 C3           3.3200     1.5850    -0.3220 ca         1 056      -0.088000
     18 C4           4.5460     1.3760     0.3320 ca         1 056      -0.108000
     19 C5           5.0000     0.0700     0.5710 ca         1 056       0.122000
     20 Cl2          6.5350    -0.1900     1.3910 cl         1 056      -0.211000
     21 H6           4.5860    -2.0380     0.3470 ha         1 056       0.141000
     22 H4           5.1430     2.2260     0.6550 ha         1 056       0.127000
     23 H3           2.9730     2.6010    -0.5000 ha         1 056       0.122000
     24 H71C         1.0370    -0.0120    -2.2240 h1         1 056       0.065200
     25 H72C         1.2410     1.7240    -1.9450 h1         1 056       0.065200
     26 H91C        -1.6210     0.2280    -2.1480 h1         1 056       0.050700
     27 H92C        -1.4440     1.9800    -1.9130 h1         1 056       0.050700
     28 H15         -2.9870     3.2150    -0.4840 ha         1 056       0.085000
     29 H11         -3.1240    -1.0950    -0.6150 ha         1 056       0.131000
     30 H14         -5.1420     3.2490     0.7510 ha         1 056       0.087000
     31 H13         -6.3020     1.1370     1.3110 ha         1 056       0.128000
@<TRIPOS>BOND
     1     1     2 1   
     2     2     3 1   
     3     2     4 1   
     4     4     5 ar  
     5     4     9 ar  
     6     5     6 ar  
     7     5    29 1   
     8     6     7 ar  
     9     6    12 1   
    10     7     8 ar  
    11     7    28 1   
    12     8     9 ar  
    13     8    30 1   
    14     9    31 1   
    15    10    12 1   
    16    10    16 1   
    17    11    13 ar  
    18    11    19 ar  
    19    11    21 1   
    20    12    26 1   
    21    12    27 1   
    22    13    14 1   
    23    13    15 ar  
    24    15    16 1   
    25    15    17 ar  
    26    16    24 1   
    27    16    25 1   
    28    17    18 ar  
    29    17    23 1   
    30    18    19 ar  
    31    18    22 1   
    32    19    20 1   
@<TRIPOS>SUBSTRUCTURE
     1 056         1 TEMP              0 ****  ****    0 ROOT
