@<TRIPOS>MOLECULE
057
   49    52     1     0     0
SMALL
bcc


@<TRIPOS>ATOM
      1 O21          2.2410    -1.5080     1.1660 o          1 057      -0.600100
      2 C20          2.6000    -0.4910     0.5850 c          1 057       0.686700
      3 N22          3.8170    -0.3280     0.0360 ns         1 057      -0.579900
      4 C23          4.9130    -1.3020     0.0350 c3         1 057       0.142400
      5 C26          5.3350    -1.6450     1.4640 c3         1 057      -0.098100
      6 C27          4.5240    -2.5630    -0.7390 c3         1 057      -0.098100
      7 C24          6.0560    -0.5730    -0.6840 c3         1 057       0.126400
      8 O25          7.1690    -1.4220    -0.7700 oh         1 057      -0.587800
      9 C15          1.6690     0.6690     0.4300 ca         1 057      -0.180600
     10 C16          2.1310     1.9990     0.4010 ca         1 057      -0.094000
     11 C18          1.2600     3.0620     0.2870 ca         1 057      -0.148000
     12 C13         -0.0980     2.7740     0.1790 ca         1 057      -0.036200
     13 N11         -1.1610     3.6200     0.0580 na         1 057      -0.049400
     14 C19         -1.0780     5.0600     0.0090 c3         1 057       0.032600
     15 C12         -2.3030     2.8840    -0.0050 cc         1 057      -0.076100
     16 C17          0.3120     0.3970     0.3500 ca         1 057      -0.027000
     17 C14         -0.5900     1.4500     0.1960 ca         1 057      -0.095800
     18 C10         -2.0180     1.5440     0.0740 cd         1 057      -0.096200
     19 C9          -2.9950     0.4790     0.0390 cd         1 057       0.034900
     20 N5          -2.6930    -0.7580    -0.4810 na         1 057      -0.271100
     21 C8          -4.3000     0.4800     0.4660 cc         1 057      -0.185200
     22 C7          -4.8330    -0.8090     0.1800 ca         1 057      -0.197100
     23 C3          -6.0550    -1.4580     0.3470 ca         1 057      -0.048000
     24 C2          -6.1500    -2.7690    -0.0910 ca         1 057      -0.281300
     25 C6          -3.7920    -1.5590    -0.4180 ca         1 057       0.436800
     26 N4          -3.8640    -2.8080    -0.8440 nb         1 057      -0.681000
     27 C1          -5.0430    -3.3930    -0.6750 ca         1 057       0.420200
     28 HN22         3.9380     0.4790    -0.5570 hn         1 057       0.306500
     29 H26          4.5410    -2.1570     2.0030 hc         1 057       0.049533
     30 H26A         6.2050    -2.3000     1.4520 hc         1 057       0.049533
     31 H26B         5.6000    -0.7420     2.0160 hc         1 057       0.049533
     32 H27          4.2510    -2.3190    -1.7670 hc         1 057       0.049533
     33 H27A         5.3560    -3.2660    -0.7670 hc         1 057       0.049533
     34 H27B         3.6800    -3.0650    -0.2720 hc         1 057       0.049533
     35 H24          5.7050    -0.2700    -1.6810 h1         1 057       0.017700
     36 H24A         6.2910     0.3470    -0.1290 h1         1 057       0.017700
     37 HO25         7.8560    -0.9650    -1.2630 ho         1 057       0.406000
     38 H16          3.1880     2.2080     0.5090 ha         1 057       0.130000
     39 H18          1.6270     4.0800     0.2940 ha         1 057       0.136000
     40 H19         -0.3870     5.3760    -0.7710 h1         1 057       0.053033
     41 H19A        -2.0600     5.4670    -0.2160 h1         1 057       0.053033
     42 H19B        -0.7420     5.4650     0.9630 h1         1 057       0.053033
     43 H12         -3.2600     3.3670    -0.1270 h4         1 057       0.170000
     44 H17         -0.0300    -0.6290     0.4050 ha         1 057       0.157000
     45 HN5         -1.8390    -0.9990    -0.9580 hn         1 057       0.311700
     46 H8          -4.8010     1.3030     0.9520 ha         1 057       0.153000
     47 H3          -6.9030    -0.9590     0.7980 ha         1 057       0.135000
     48 H2          -7.0750    -3.3200     0.0090 ha         1 057       0.137000
     49 H1          -5.1260    -4.4170    -1.0210 h4         1 057       0.017100
@<TRIPOS>BOND
     1     1     2 2   
     2     2     3 1   
     3     2     9 1   
     4     3     4 1   
     5     3    28 1   
     6     4     5 1   
     7     4     6 1   
     8     4     7 1   
     9     5    29 1   
    10     5    30 1   
    11     5    31 1   
    12     6    32 1   
    13     6    33 1   
    14     6    34 1   
    15     7     8 1   
    16     7    35 1   
    17     7    36 1   
    18     8    37 1   
    19     9    10 ar  
    20     9    16 ar  
    21    10    11 ar  
    22    10    38 1   
    23    11    12 ar  
    24    11    39 1   
    25    12    13 1   
    26    12    17 ar  
    27    13    14 1   
    28    13    15 1   
    29    14    40 1   
    30    14    41 1   
    31    14    42 1   
    32    15    18 2   
    33    15    43 1   
    34    16    17 ar  
    35    16    44 1   
    36    17    18 1   
    37    18    19 1   
    38    19    20 1   
    39    19    21 2   
    40    20    25 1   
    41    20    45 1   
    42    21    22 1   
    43    21    46 1   
    44    22    23 ar  
    45    22    25 ar  
    46    23    24 ar  
    47    23    47 1   
    48    24    27 ar  
    49    24    48 1   
    50    25    26 ar  
    51    26    27 ar  
    52    27    49 1   
@<TRIPOS>SUBSTRUCTURE
     1 057         1 TEMP              0 ****  ****    0 ROOT
