@<TRIPOS>MOLECULE
057
   49    52     1     0     0
SMALL
No Charge or Current Charge


@<TRIPOS>ATOM
      1 O21          2.2550    -1.7950     0.0330 o          1 057      -0.600100
      2 C20          2.6500    -0.6380     0.0040 c          1 057       0.619700
      3 N22          3.9940    -0.3100    -0.0260 ns         1 057      -0.512900
      4 C23          5.1510    -1.2270    -0.0290 c3         1 057       0.142400
      5 C26          5.1470    -2.0870     1.2650 c3         1 057      -0.098100
      6 C27          5.1020    -2.1360    -1.2880 c3         1 057      -0.098100
      7 C24          6.4380    -0.3330    -0.0690 c3         1 057       0.149600
      8 O25          7.6510    -1.1060    -0.0760 oh         1 057      -0.650000
      9 C15          1.6820     0.5280    -0.0010 ca         1 057      -0.180600
     10 C16          2.1230     1.8840    -0.0350 ca         1 057      -0.076000
     11 C18          1.1950     2.9470    -0.0390 ca         1 057      -0.130000
     12 C13         -0.1710     2.6360    -0.0090 ca         1 057      -0.036200
     13 N11         -1.2690     3.4870    -0.0050 na         1 057      -0.078700
     14 C19         -1.1230     4.9500    -0.0360 c3         1 057       0.061900
     15 C12         -2.4670     2.7520     0.0300 cc         1 057      -0.126100
     16 C17          0.2890     0.2590     0.0290 ca         1 057      -0.009000
     17 C14         -0.6070     1.3400     0.0240 ca         1 057      -0.095800
     18 C10         -2.0570     1.4220     0.0490 cd         1 057      -0.096200
     19 C9          -3.0430     0.3680     0.0860 cd         1 057       0.034900
     20 N5          -2.7600    -1.0130     0.1080 na         1 057      -0.321400
     21 C8          -4.4130     0.5680     0.1070 cc         1 057      -0.235200
     22 C7          -4.9910    -0.7420     0.1420 ca         1 057      -0.131800
     23 C3          -6.3370    -1.1210     0.1740 ca         1 057      -0.030000
     24 C2          -6.5870    -2.5040     0.2050 ca         1 057      -0.198000
     25 C6          -3.9720    -1.6730     0.1420 ca         1 057       0.371500
     26 N4          -4.2010    -3.0010     0.1710 nb         1 057      -0.681000
     27 C1          -5.4980    -3.4030     0.2020 ca         1 057       0.354900
     28 HN22         4.1940     0.6800    -0.0490 hn         1 057       0.306500
     29 H26          4.2700    -2.7400     1.3160 hc         1 057       0.049533
     30 H26A         6.0320    -2.7320     1.3110 hc         1 057       0.049533
     31 H26B         5.1480    -1.4470     2.1550 hc         1 057       0.049533
     32 H27          5.0710    -1.5310    -2.2020 hc         1 057       0.049533
     33 H27A         5.9850    -2.7830    -1.3420 hc         1 057       0.049533
     34 H27B         4.2240    -2.7900    -1.2840 hc         1 057       0.049533
     35 H24          6.4010     0.3020    -0.9650 h1         1 057       0.017700
     36 H24A         6.4330     0.3360     0.8020 h1         1 057       0.017700
     37 HO25         8.3990    -0.4670    -0.1010 ho         1 057       0.445000
     38 H16          3.1800     2.1350    -0.0590 ha         1 057       0.112000
     39 H18          1.5390     3.9780    -0.0650 ha         1 057       0.118000
     40 H19         -0.5900     5.2480    -0.9470 h1         1 057       0.053033
     41 H19A        -2.1130     5.4230    -0.0270 h1         1 057       0.053033
     42 H19B        -0.5580     5.2830     0.8430 h1         1 057       0.053033
     43 H12         -3.4460     3.2180     0.0390 h4         1 057       0.220000
     44 H17         -0.0730    -0.7630     0.0550 ha         1 057       0.139000
     45 HN5         -1.8540    -1.4540     0.1000 hn         1 057       0.362000
     46 H8          -4.9380     1.5190     0.0980 ha         1 057       0.203000
     47 H3          -7.1420    -0.3890     0.1740 ha         1 057       0.117000
     48 H2          -7.6040    -2.8840     0.2300 ha         1 057       0.119000
     49 H1          -5.6700    -4.4790     0.2260 h4         1 057       0.017100
@<TRIPOS>BOND
     1     1     2 2   
     2     2     3 1   
     3     2     9 1   
     4     3     4 1   
     5     3    28 1   
     6     4     5 1   
     7     4     6 1   
     8     4     7 1   
     9     5    29 1   
    10     5    30 1   
    11     5    31 1   
    12     6    32 1   
    13     6    33 1   
    14     6    34 1   
    15     7     8 1   
    16     7    35 1   
    17     7    36 1   
    18     8    37 1   
    19     9    10 ar  
    20     9    16 ar  
    21    10    11 ar  
    22    10    38 1   
    23    11    12 ar  
    24    11    39 1   
    25    12    13 1   
    26    12    17 ar  
    27    13    14 1   
    28    13    15 1   
    29    14    40 1   
    30    14    41 1   
    31    14    42 1   
    32    15    18 2   
    33    15    43 1   
    34    16    17 ar  
    35    16    44 1   
    36    17    18 1   
    37    18    19 1   
    38    19    20 1   
    39    19    21 2   
    40    20    25 1   
    41    20    45 1   
    42    21    22 1   
    43    21    46 1   
    44    22    23 ar  
    45    22    25 ar  
    46    23    24 ar  
    47    23    47 1   
    48    24    27 ar  
    49    24    48 1   
    50    25    26 ar  
    51    26    27 ar  
    52    27    49 1   
@<TRIPOS>SUBSTRUCTURE
     1 057         1 TEMP              0 ****  ****    0 ROOT
