@<TRIPOS>MOLECULE
058
   41    44     1     0     0
SMALL
No Charge or Current Charge


@<TRIPOS>ATOM
      1 C1           1.1780     3.0400    -0.8430 ca         1 058       0.089000
      2 F1           2.3580    -2.2060     1.9340 f          1 058      -0.165000
      3 N1          -1.0200    -0.0760     0.8150 na         1 058      -0.060700
      4 O1          -1.4670    -2.9670     1.5230 o          1 058      -0.692500
      5 Cl1          2.1950     4.2900    -1.5460 cl         1 058      -0.260000
      6 C2          -0.0780     3.3850    -0.2940 ca         1 058      -0.124000
      7 O2           0.2550    -3.5290     0.3990 o          1 058      -0.692500
      8 C3          -0.8970     2.3940     0.2870 ca         1 058      -0.107000
      9 C4           1.6220     1.7020    -0.8290 ca         1 058      -0.070000
     10 C5          -0.2030    -1.2160     0.5880 cc         1 058      -0.036300
     11 C6           0.9210    -0.6970    -0.0800 cd         1 058      -0.140400
     12 C7           0.7750     0.7350    -0.2630 ca         1 058      -0.065800
     13 C8          -0.4300     1.0680     0.2910 ca         1 058      -0.069200
     14 C9          -2.3480    -0.0080     1.4640 c3         1 058       0.109900
     15 C10         -0.4720    -2.6690     0.8770 c          1 058       0.725200
     16 C11          2.2210    -1.3620    -0.3190 ca         1 058       0.014200
     17 C12          2.8620    -1.2050    -1.5660 ca         1 058      -0.091000
     18 C13          4.1030    -1.8160    -1.8200 ca         1 058      -0.143000
     19 C14          4.7300    -2.5810    -0.8240 ca         1 058      -0.109000
     20 C15          4.1170    -2.7270     0.4300 ca         1 058      -0.163000
     21 C16          2.8730    -2.1220     0.6840 ca         1 058       0.204000
     22 C17         -3.5260     0.0580     0.4900 ca         1 058      -0.095300
     23 C18         -4.6430     0.8600     0.8010 ca         1 058      -0.092500
     24 C19         -5.7340     0.9340    -0.0820 ca         1 058      -0.120000
     25 C20         -5.7200     0.2040    -1.2810 ca         1 058      -0.120000
     26 C21         -4.6140    -0.6020    -1.5960 ca         1 058      -0.120000
     27 C22         -3.5220    -0.6770    -0.7150 ca         1 058      -0.092500
     28 H2          -0.4100     4.4200    -0.3110 ha         1 058       0.108000
     29 H3          -1.8590     2.6610     0.7160 ha         1 058       0.109000
     30 H4           2.5930     1.4440    -1.2390 ha         1 058       0.123000
     31 H9          -2.4810    -0.8670     2.1280 h1         1 058       0.085700
     32 H9A         -2.3630     0.8760     2.1130 h1         1 058       0.085700
     33 H12          2.3810    -0.6310    -2.3540 ha         1 058       0.111000
     34 H13          4.5770    -1.6970    -2.7910 ha         1 058       0.097000
     35 H14          5.6920    -3.0500    -1.0200 ha         1 058       0.095000
     36 H15          4.6090    -3.2970     1.2140 ha         1 058       0.115000
     37 H18         -4.6660     1.4300     1.7280 ha         1 058       0.125500
     38 H19         -6.5910     1.5570     0.1650 ha         1 058       0.103500
     39 H20         -6.5650     0.2610    -1.9640 ha         1 058       0.098000
     40 H21         -4.6030    -1.1700    -2.5240 ha         1 058       0.103500
     41 H22         -2.6760    -1.3100    -0.9730 ha         1 058       0.125500
@<TRIPOS>BOND
     1     1     5 1   
     2     1     6 ar  
     3     1     9 ar  
     4     2    21 1   
     5     3    10 1   
     6     3    13 1   
     7     3    14 1   
     8     4    15 1   
     9     6     8 ar  
    10     6    28 1   
    11     7    15 1   
    12     8    13 ar  
    13     8    29 1   
    14     9    12 ar  
    15     9    30 1   
    16    10    11 2   
    17    10    15 1   
    18    11    12 1   
    19    11    16 1   
    20    12    13 ar  
    21    14    22 1   
    22    14    31 1   
    23    14    32 1   
    24    16    17 ar  
    25    16    21 ar  
    26    17    18 ar  
    27    17    33 1   
    28    18    19 ar  
    29    18    34 1   
    30    19    20 ar  
    31    19    35 1   
    32    20    21 ar  
    33    20    36 1   
    34    22    23 ar  
    35    22    27 ar  
    36    23    24 ar  
    37    23    37 1   
    38    24    25 ar  
    39    24    38 1   
    40    25    26 ar  
    41    25    39 1   
    42    26    27 ar  
    43    26    40 1   
    44    27    41 1   
@<TRIPOS>SUBSTRUCTURE
     1 058         1 TEMP              0 ****  ****    0 ROOT
