@<TRIPOS>MOLECULE
058
   41    44     1     0     0
SMALL
abcg2


@<TRIPOS>ATOM
      1 C1           1.0570     3.1400    -0.6150 ca         1 058       0.089000
      2 F1           2.4540    -2.2240     1.8400 f          1 058      -0.165000
      3 N1          -1.0070     0.0390     1.0610 na         1 058      -0.060700
      4 O1          -1.0040    -2.6030     2.3350 o          1 058      -0.692500
      5 CL1          2.0020     4.4180    -1.3270 cl         1 058      -0.260000
      6 C2          -0.1920     3.4630    -0.0690 ca         1 058      -0.124000
      7 O2          -0.0880    -3.3110     0.4250 o          1 058      -0.692500
      8 C3          -0.9690     2.4790     0.5120 ca         1 058      -0.107000
      9 C4           1.5600     1.8570    -0.6120 ca         1 058      -0.070000
     10 C5          -0.1580    -1.0150     0.8120 cc         1 058      -0.036300
     11 C6           0.9500    -0.5570     0.1370 cd         1 058      -0.140400
     12 C7           0.7750     0.8510    -0.0390 ca         1 058      -0.065800
     13 C8          -0.4690     1.1800     0.5330 ca         1 058      -0.069200
     14 C9          -2.3670    -0.0280     1.5530 c3         1 058       0.109900
     15 C10         -0.4480    -2.4420     1.2330 c          1 058       0.725200
     16 C11          2.1190    -1.3200    -0.3040 ca         1 058       0.014200
     17 C12          2.5870    -1.2270    -1.6160 ca         1 058      -0.091000
     18 C13          3.7140    -1.9190    -2.0380 ca         1 058      -0.143000
     19 C14          4.4030    -2.7290    -1.1460 ca         1 058      -0.109000
     20 C15          3.9650    -2.8380     0.1680 ca         1 058      -0.163000
     21 C16          2.8450    -2.1330     0.5580 ca         1 058       0.204000
     22 C17         -3.3850    -0.0020     0.4410 ca         1 058      -0.095300
     23 C18         -4.4460     0.8960     0.4820 ca         1 058      -0.092500
     24 C19         -5.4020     0.9130    -0.5280 ca         1 058      -0.120000
     25 C20         -5.3000     0.0330    -1.5950 ca         1 058      -0.120000
     26 C21         -4.2410    -0.8660    -1.6450 ca         1 058      -0.120000
     27 C22         -3.2920    -0.8850    -0.6330 ca         1 058      -0.092500
     28 H2          -0.5470     4.4840    -0.0970 ha         1 058       0.108000
     29 H3          -1.9310     2.7320     0.9360 ha         1 058       0.109000
     30 H4           2.5290     1.6360    -1.0390 ha         1 058       0.123000
     31 H9          -2.4590    -0.9350     2.1470 h1         1 058       0.085700
     32 H9A         -2.5300     0.8080     2.2350 h1         1 058       0.085700
     33 H12          2.0460    -0.6080    -2.3210 ha         1 058       0.111000
     34 H13          4.0470    -1.8300    -3.0630 ha         1 058       0.097000
     35 H14          5.2810    -3.2750    -1.4650 ha         1 058       0.095000
     36 H15          4.4910    -3.4580     0.8820 ha         1 058       0.115000
     37 H18         -4.5280     1.5930     1.3070 ha         1 058       0.125500
     38 H19         -6.2200     1.6200    -0.4810 ha         1 058       0.103500
     39 H20         -6.0400     0.0470    -2.3850 ha         1 058       0.098000
     40 H21         -4.1550    -1.5560    -2.4740 ha         1 058       0.103500
     41 H22         -2.4730    -1.5930    -0.6900 ha         1 058       0.125500
@<TRIPOS>BOND
     1     1     5 1   
     2     1     6 ar  
     3     1     9 ar  
     4     2    21 1   
     5     3    10 1   
     6     3    13 1   
     7     3    14 1   
     8     4    15 1   
     9     6     8 ar  
    10     6    28 1   
    11     7    15 1   
    12     8    13 ar  
    13     8    29 1   
    14     9    12 ar  
    15     9    30 1   
    16    10    11 2   
    17    10    15 1   
    18    11    12 1   
    19    11    16 1   
    20    12    13 ar  
    21    14    22 1   
    22    14    31 1   
    23    14    32 1   
    24    16    17 ar  
    25    16    21 ar  
    26    17    18 ar  
    27    17    33 1   
    28    18    19 ar  
    29    18    34 1   
    30    19    20 ar  
    31    19    35 1   
    32    20    21 ar  
    33    20    36 1   
    34    22    23 ar  
    35    22    27 ar  
    36    23    24 ar  
    37    23    37 1   
    38    24    25 ar  
    39    24    38 1   
    40    25    26 ar  
    41    25    39 1   
    42    26    27 ar  
    43    26    40 1   
    44    27    41 1   
@<TRIPOS>SUBSTRUCTURE
     1 058         1 TEMP              0 ****  ****    0 ROOT
