@<TRIPOS>MOLECULE
059
   61    62     1     0     0
SMALL
abcg2


@<TRIPOS>ATOM
      1 C36         -5.7600    -2.4690     1.3560 ca         1 059      -0.097000
      2 C37         -5.7820    -3.7950     1.7720 ca         1 059      -0.115000
      3 C38         -5.1870    -4.7790     0.9950 ca         1 059      -0.126000
      4 C39         -4.5720    -4.4310    -0.2010 ca         1 059      -0.115000
      5 C40         -4.5530    -3.1060    -0.6140 ca         1 059      -0.097000
      6 C35         -5.1490    -2.1110     0.1580 ca         1 059      -0.053300
      7 C34         -5.0920    -0.6730    -0.2800 c3         1 059       0.005900
      8 C33         -3.7490    -0.0620     0.1120 c3         1 059      -0.362400
      9 S32         -3.6320     1.6550    -0.3870 s6         1 059       1.197100
     10 O32         -3.8060     1.7170    -1.8340 o          1 059      -0.582500
     11 O33         -4.5380     2.4250     0.4590 o          1 059      -0.582500
     12 N31         -2.1190     2.1640    -0.0430 n7         1 059      -0.855300
     13 C27         -0.9570     1.8000    -0.8620 c3         1 059      -0.111500
     14 C28         -0.2330     3.0670    -1.3400 c3         1 059      -0.021700
     15 C30         -1.1290     3.8950    -2.2570 c3         1 059      -0.086100
     16 C29          0.2960     3.9240    -0.1940 c3         1 059      -0.086100
     17 P24          0.0380     0.5810     0.1530 p5         1 059       1.354000
     18 O25         -0.5300    -0.8020    -0.1140 o          1 059      -0.808000
     19 O26          0.0180     1.0970     1.5810 o          1 059      -0.808000
     20 C15          1.7340     0.6440    -0.5350 c3         1 059      -0.407400
     21 C1           2.6920    -0.1480     0.3510 c3         1 059      -0.138400
     22 C2           3.1160     0.6510     1.6180 c          1 059       0.747000
     23 O14          3.3650     1.8590     1.4580 o          1 059      -0.731000
     24 O13          3.2410    -0.0060     2.6700 o          1 059      -0.731000
     25 C3           3.9710    -0.5450    -0.3440 ca         1 059       0.015700
     26 C8           4.6560    -1.6850     0.0840 ca         1 059      -0.105000
     27 C4           4.5370     0.2130    -1.3630 ca         1 059      -0.103000
     28 C5           5.7410    -0.1710    -1.9450 ca         1 059      -0.137000
     29 C6           6.4000    -1.3110    -1.5130 ca         1 059      -0.136000
     30 C7           5.8620    -2.0780    -0.4800 ca         1 059      -0.113300
     31 C9           6.5640    -3.3230    -0.0050 c3         1 059       0.201100
     32 N10          6.5760    -4.3400    -1.0480 n8         1 059      -0.998200
     33 H36         -6.2300    -1.7070     1.9660 ha         1 059       0.115000
     34 H37         -6.2650    -4.0580     2.7050 ha         1 059       0.098500
     35 H38         -5.2060    -5.8120     1.3170 ha         1 059       0.093000
     36 H39         -4.1090    -5.1930    -0.8160 ha         1 059       0.098500
     37 H40         -4.0760    -2.8420    -1.5510 ha         1 059       0.115000
     38 H341        -5.2220    -0.6070    -1.3610 hc         1 059       0.046700
     39 H342        -5.9060    -0.1110     0.1820 hc         1 059       0.046700
     40 H331        -3.6060    -0.0790     1.1940 h1         1 059       0.129700
     41 H332        -2.9040    -0.5860    -0.3390 h1         1 059       0.129700
     42 HN31        -1.9210     2.1840     0.9550 hn         1 059       0.516000
     43 H27         -1.3050     1.2660    -1.7500 h1         1 059       0.054700
     44 H28          0.6210     2.7270    -1.9340 hc         1 059       0.037700
     45 H301        -2.0190     4.2390    -1.7300 hc         1 059       0.028367
     46 H302        -0.5960     4.7760    -2.6200 hc         1 059       0.028367
     47 H303        -1.4570     3.3210    -3.1240 hc         1 059       0.028367
     48 H291         0.9690     3.3740     0.4640 hc         1 059       0.028367
     49 H292         0.8410     4.7840    -0.5870 hc         1 059       0.028367
     50 H293        -0.5260     4.3120     0.4120 hc         1 059       0.028367
     51 H151         1.7000     0.2320    -1.5480 hc         1 059       0.041200
     52 H152         2.0890     1.6710    -0.6130 hc         1 059       0.041200
     53 H1           2.2050    -1.0710     0.6790 hc         1 059       0.057700
     54 H8           4.2280    -2.2820     0.8830 ha         1 059       0.118000
     55 H4           4.0340     1.1030    -1.7180 ha         1 059       0.116000
     56 H5           6.1670     0.4280    -2.7410 ha         1 059       0.077000
     57 H6           7.3350    -1.6060    -1.9740 ha         1 059       0.082000
     58 H91          7.6030    -3.0800     0.2340 h1         1 059       0.023200
     59 H92          6.1020    -3.6540     0.9340 h1         1 059       0.023200
     60 H101         7.0800    -5.1530    -0.7150 hn         1 059       0.377500
     61 H102         5.6280    -4.6550    -1.2160 hn         1 059       0.377500
@<TRIPOS>BOND
     1     1     2 ar  
     2     1     6 ar  
     3     1    33 1   
     4     2     3 ar  
     5     2    34 1   
     6     3     4 ar  
     7     3    35 1   
     8     4     5 ar  
     9     4    36 1   
    10     5     6 ar  
    11     5    37 1   
    12     6     7 1   
    13     7     8 1   
    14     7    38 1   
    15     7    39 1   
    16     8     9 1   
    17     8    40 1   
    18     8    41 1   
    19     9    10 2   
    20     9    11 2   
    21     9    12 1   
    22    12    13 1   
    23    12    42 1   
    24    13    14 1   
    25    13    17 1   
    26    13    43 1   
    27    14    15 1   
    28    14    16 1   
    29    14    44 1   
    30    15    45 1   
    31    15    46 1   
    32    15    47 1   
    33    16    48 1   
    34    16    49 1   
    35    16    50 1   
    36    17    18 1   
    37    17    19 1   
    38    17    20 1   
    39    20    21 1   
    40    20    51 1   
    41    20    52 1   
    42    21    22 1   
    43    21    25 1   
    44    21    53 1   
    45    22    23 1   
    46    22    24 1   
    47    25    26 ar  
    48    25    27 ar  
    49    26    30 ar  
    50    26    54 1   
    51    27    28 ar  
    52    27    55 1   
    53    28    29 ar  
    54    28    56 1   
    55    29    30 ar  
    56    29    57 1   
    57    30    31 1   
    58    31    32 1   
    59    31    58 1   
    60    31    59 1   
    61    32    60 1   
    62    32    61 1   
@<TRIPOS>SUBSTRUCTURE
     1 059         1 TEMP              0 ****  ****    0 ROOT
