@<TRIPOS>MOLECULE
059
   61    62     1     0     0
SMALL
No Charge or Current Charge


@<TRIPOS>ATOM
      1 C36         -6.2480    -1.7030     1.6180 ca         1 059      -0.097000
      2 C37         -6.4110    -2.5310     2.7430 ca         1 059      -0.115000
      3 C38         -5.5150    -3.5870     2.9750 ca         1 059      -0.126000
      4 C39         -4.4550    -3.8160     2.0830 ca         1 059      -0.115000
      5 C40         -4.2910    -2.9880     0.9580 ca         1 059      -0.097000
      6 C35         -5.1870    -1.9280     0.7180 ca         1 059      -0.053300
      7 C34         -5.0050    -1.0340    -0.5010 c3         1 059       0.005900
      8 C33         -3.8180    -0.0620    -0.3240 c3         1 059      -0.362400
      9 S32         -3.5770     0.9960    -1.7480 s6         1 059       1.197100
     10 O32         -3.0730     0.1950    -2.8660 o          1 059      -0.582500
     11 O33         -4.7490     1.8530    -1.9370 o          1 059      -0.582500
     12 N31         -2.3340     2.0240    -1.2930 n7         1 059      -0.855300
     13 C27         -0.8570     1.6400    -1.3880 c3         1 059      -0.111500
     14 C28         -0.0100     2.9520    -1.2630 c3         1 059      -0.021700
     15 C30         -0.3470     3.9780    -2.3740 c3         1 059      -0.086100
     16 C29         -0.0880     3.6100     0.1380 c3         1 059      -0.086100
     17 P24         -0.1580     0.1650    -0.3770 p5         1 059       1.354000
     18 O25         -0.5380    -1.1340    -1.0150 o          1 059      -0.808000
     19 O26         -0.6310     0.2620     1.0390 o          1 059      -0.808000
     20 C15          1.6870     0.3200    -0.4360 c3         1 059      -0.407400
     21 C1           2.4900    -0.9230     0.0850 c3         1 059      -0.138400
     22 C2           2.2120    -1.2760     1.5760 c          1 059       0.747000
     23 O14          2.5260    -0.4690     2.4410 o          1 059      -0.731000
     24 O13          1.7630    -2.3860     1.8300 o          1 059      -0.731000
     25 C3           4.0000    -0.8080    -0.1610 ca         1 059       0.015700
     26 C8           4.7060    -1.9070    -0.6930 ca         1 059      -0.105000
     27 C4           4.7070     0.3740     0.1430 ca         1 059      -0.103000
     28 C5           6.0910     0.4560    -0.0890 ca         1 059      -0.137000
     29 C6           6.7820    -0.6420    -0.6240 ca         1 059      -0.136000
     30 C7           6.0940    -1.8320    -0.9300 ca         1 059      -0.113300
     31 C9           6.8440    -3.0310    -1.4970 c3         1 059       0.201100
     32 N10          6.8620    -3.0100    -2.9690 n8         1 059      -0.998200
     33 H36         -6.9460    -0.8860     1.4480 ha         1 059       0.115000
     34 H37         -7.2320    -2.3520     3.4340 ha         1 059       0.098500
     35 H38         -5.6420    -4.2270     3.8460 ha         1 059       0.093000
     36 H39         -3.7600    -4.6330     2.2620 ha         1 059       0.098500
     37 H40         -3.4670    -3.1700     0.2720 ha         1 059       0.115000
     38 H341        -4.8390    -1.6560    -1.3900 hc         1 059       0.046700
     39 H342        -5.9220    -0.4630    -0.6940 hc         1 059       0.046700
     40 H331        -3.9880     0.5950     0.5340 h1         1 059       0.129700
     41 H332        -2.8950    -0.6240    -0.1850 h1         1 059       0.129700
     42 HN31        -2.5780     2.1970    -0.3170 hn         1 059       0.516000
     43 H27         -0.6690     1.2680    -2.4040 h1         1 059       0.054700
     44 H28          1.0400     2.6930    -1.4340 hc         1 059       0.037700
     45 H301        -1.3600     4.3820    -2.2540 hc         1 059       0.028367
     46 H302         0.3560     4.8200    -2.3460 hc         1 059       0.028367
     47 H303        -0.2760     3.5140    -3.3650 hc         1 059       0.028367
     48 H291         0.2290     2.9160     0.9230 hc         1 059       0.028367
     49 H292         0.5710     4.4850     0.1850 hc         1 059       0.028367
     50 H293        -1.1070     3.9450     0.3640 hc         1 059       0.028367
     51 H151         1.9520     0.5130    -1.4810 hc         1 059       0.041200
     52 H152         1.9420     1.2070     0.1510 hc         1 059       0.041200
     53 H1           2.1320    -1.7790    -0.5000 hc         1 059       0.057700
     54 H8           4.1750    -2.8270    -0.9250 ha         1 059       0.118000
     55 H4           4.1900     1.2300     0.5680 ha         1 059       0.116000
     56 H5           6.6270     1.3720     0.1490 ha         1 059       0.077000
     57 H6           7.8530    -0.5700    -0.8000 ha         1 059       0.082000
     58 H91          7.8800    -3.0340    -1.1310 h1         1 059       0.023200
     59 H92          6.3610    -3.9610    -1.1650 h1         1 059       0.023200
     60 H101         7.2850    -3.8820    -3.3060 hn         1 059       0.377500
     61 H102         5.8940    -3.0560    -3.3050 hn         1 059       0.377500
@<TRIPOS>BOND
     1     1     2 ar  
     2     1     6 ar  
     3     1    33 1   
     4     2     3 ar  
     5     2    34 1   
     6     3     4 ar  
     7     3    35 1   
     8     4     5 ar  
     9     4    36 1   
    10     5     6 ar  
    11     5    37 1   
    12     6     7 1   
    13     7     8 1   
    14     7    38 1   
    15     7    39 1   
    16     8     9 1   
    17     8    40 1   
    18     8    41 1   
    19     9    10 2   
    20     9    11 2   
    21     9    12 1   
    22    12    13 1   
    23    12    42 1   
    24    13    14 1   
    25    13    17 1   
    26    13    43 1   
    27    14    15 1   
    28    14    16 1   
    29    14    44 1   
    30    15    45 1   
    31    15    46 1   
    32    15    47 1   
    33    16    48 1   
    34    16    49 1   
    35    16    50 1   
    36    17    18 1   
    37    17    19 1   
    38    17    20 1   
    39    20    21 1   
    40    20    51 1   
    41    20    52 1   
    42    21    22 1   
    43    21    25 1   
    44    21    53 1   
    45    22    23 1   
    46    22    24 1   
    47    25    26 ar  
    48    25    27 ar  
    49    26    30 ar  
    50    26    54 1   
    51    27    28 ar  
    52    27    55 1   
    53    28    29 ar  
    54    28    56 1   
    55    29    30 ar  
    56    29    57 1   
    57    30    31 1   
    58    31    32 1   
    59    31    58 1   
    60    31    59 1   
    61    32    60 1   
    62    32    61 1   
@<TRIPOS>SUBSTRUCTURE
     1 059         1 TEMP              0 ****  ****    0 ROOT
