@<TRIPOS>MOLECULE
05B
   51    56     1     0     0
SMALL
No Charge or Current Charge


@<TRIPOS>ATOM
      1 C1          -4.7430     0.0010    -0.1640 c6         1 05B       0.004300
      2 C2          -5.3100    -1.3150    -0.7980 c6         1 05B       0.119000
      3 N3          -4.5030    -2.5200    -0.5220 ns         1 05B      -0.510900
      4 C4          -3.1340    -2.5480    -0.3920 c          1 05B       0.604600
      5 N5          -7.1120     1.5440     0.7800 n7         1 05B      -0.865400
      6 C6          -5.3000     1.2500    -0.9150 c6         1 05B      -0.068400
      7 C7          -5.1280     0.1150     1.3440 c6         1 05B      -0.068400
      8 C8          -6.6450     0.3690     1.5540 c6         1 05B       0.158800
      9 C9          -6.8180     1.4400    -0.6700 c6         1 05B       0.158800
     10 O10         -2.5190    -3.6010    -0.3380 o          1 05B      -0.558000
     11 C11         -3.2310    -0.0520    -0.2630 cc         1 05B      -0.106300
     12 C12         -2.5020    -1.2100    -0.3400 cd         1 05B      -0.243600
     13 C13         -1.1260    -0.8910    -0.3130 cd         1 05B      -0.029000
     14 C14         -1.0120     0.4740    -0.2390 cc         1 05B      -0.280500
     15 N15         -2.3080     0.9950    -0.1860 na         1 05B      -0.078000
     16 C16          0.2650     1.1900    -0.1550 ca         1 05B       0.230500
     17 C17          0.3050     2.5950    -0.1530 ca         1 05B      -0.244000
     18 C18          1.5610     3.2130    -0.0620 ca         1 05B       0.124900
     19 N19          2.6920     2.4890     0.0230 nb         1 05B      -0.186000
     20 C20          2.5800     1.1430     0.0180 cp         1 05B       0.215500
     21 N21          1.4070     0.4760    -0.0670 nb         1 05B      -0.189000
     22 C22          3.8470     0.3290     0.1140 cp         1 05B      -0.161500
     23 C23          3.8150    -1.1040     0.1180 ca         1 05B      -0.059000
     24 C24          4.9980    -1.8690     0.2090 ca         1 05B      -0.115000
     25 C25          5.1260     0.9610     0.2060 ca         1 05B      -0.050000
     26 C26          6.2790     0.1700     0.2930 ca         1 05B       0.030100
     27 C27          6.2170    -1.1920     0.2940 ca         1 05B       0.074100
     28 O28          7.4410    -1.7690     0.3930 os         1 05B      -0.342100
     29 C29          8.3470    -0.6090     0.4070 c5         1 05B       0.373600
     30 O30          7.5520     0.6310     0.3910 os         1 05B      -0.343100
     31 H2          -6.3440    -1.4990    -0.4760 h1         1 05B       0.044200
     32 H2A         -5.3340    -1.1990    -1.8910 h1         1 05B       0.044200
     33 HN3         -4.9610    -3.4230    -0.5460 hn         1 05B       0.315500
     34 HN5         -8.1270     1.6460     0.9090 hn         1 05B       0.416000
     35 H6          -4.7830     2.1580    -0.5780 hc         1 05B       0.055200
     36 H6A         -5.1040     1.1690    -1.9930 hc         1 05B       0.055200
     37 H7          -4.8280    -0.7940     1.8830 hc         1 05B       0.055200
     38 H7A         -4.5690     0.9400     1.8050 hc         1 05B       0.055200
     39 H8          -6.8410     0.5360     2.6240 h1         1 05B       0.033700
     40 H8A         -7.2190    -0.5200     1.2550 h1         1 05B       0.033700
     41 H9          -7.3760     0.5950    -1.1000 h1         1 05B       0.033700
     42 H9A         -7.1600     2.3540    -1.1770 h1         1 05B       0.033700
     43 H13         -0.3090    -1.6090    -0.3440 ha         1 05B       0.164000
     44 HN15        -2.5470     1.9760    -0.0900 hn         1 05B       0.350000
     45 H17         -0.5980     3.1940    -0.2220 ha         1 05B       0.123000
     46 H18          1.6650     4.2970    -0.0570 h4         1 05B       0.024100
     47 H23          2.8680    -1.6350     0.0520 ha         1 05B       0.143000
     48 H24          4.9640    -2.9550     0.2140 ha         1 05B       0.138000
     49 H25          5.2300     2.0440     0.2120 ha         1 05B       0.154000
     50 H29          8.9640    -0.6370     1.3130 h2         1 05B       0.064700
     51 H29A         8.9840    -0.6390    -0.4840 h2         1 05B       0.064700
@<TRIPOS>BOND
     1     1     2 1   
     2     1     6 1   
     3     1     7 1   
     4     1    11 1   
     5     2     3 1   
     6     2    31 1   
     7     2    32 1   
     8     3     4 1   
     9     3    33 1   
    10     4    10 2   
    11     4    12 1   
    12     5     8 1   
    13     5     9 1   
    14     5    34 1   
    15     6     9 1   
    16     6    35 1   
    17     6    36 1   
    18     7     8 1   
    19     7    37 1   
    20     7    38 1   
    21     8    39 1   
    22     8    40 1   
    23     9    41 1   
    24     9    42 1   
    25    11    12 2   
    26    11    15 1   
    27    12    13 1   
    28    13    14 2   
    29    13    43 1   
    30    14    15 1   
    31    14    16 1   
    32    15    44 1   
    33    16    17 ar  
    34    16    21 ar  
    35    17    18 ar  
    36    17    45 1   
    37    18    19 ar  
    38    18    46 1   
    39    19    20 ar  
    40    20    21 ar  
    41    20    22 1   
    42    22    23 ar  
    43    22    25 ar  
    44    23    24 ar  
    45    23    47 1   
    46    24    27 ar  
    47    24    48 1   
    48    25    26 ar  
    49    25    49 1   
    50    26    27 ar  
    51    26    30 1   
    52    27    28 1   
    53    28    29 1   
    54    29    30 1   
    55    29    50 1   
    56    29    51 1   
@<TRIPOS>SUBSTRUCTURE
     1 05B         1 TEMP              0 ****  ****    0 ROOT
