@<TRIPOS>MOLECULE
05B
   51    56     1     0     0
SMALL
bcc


@<TRIPOS>ATOM
      1 C1          -4.6520     0.0080    -0.1500 c6         1 05B       0.004300
      2 C2          -5.1730    -1.2640    -0.8400 c6         1 05B       0.119000
      3 N3          -4.5570    -2.4740    -0.3280 ns         1 05B      -0.577900
      4 C4          -3.2200    -2.6170    -0.1680 c          1 05B       0.747100
      5 N5          -6.9180     1.6380     0.6720 n7         1 05B      -0.810200
      6 C6          -5.1230     1.2500    -0.9200 c6         1 05B      -0.068400
      7 C7          -5.1350     0.1080     1.3120 c6         1 05B      -0.068400
      8 C8          -6.6220     0.4210     1.4040 c6         1 05B       0.158800
      9 C9          -6.6140     1.5000    -0.7400 c6         1 05B       0.158800
     10 O10         -2.6770    -3.7020     0.0120 o          1 05B      -0.633500
     11 C11         -3.1650    -0.1360    -0.1700 cc         1 05B      -0.055600
     12 C12         -2.4980    -1.3470    -0.1800 cd         1 05B      -0.243600
     13 C13         -1.1160    -1.0810    -0.1180 cd         1 05B      -0.047000
     14 C14         -0.9770     0.2880    -0.0780 cc         1 05B      -0.229800
     15 N15         -2.2410     0.8370    -0.1050 na         1 05B      -0.129100
     16 C16          0.2310     1.0830    -0.0210 ca         1 05B       0.558800
     17 C17          0.2290     2.4790     0.0180 ca         1 05B      -0.392600
     18 C18          1.4630     3.0950     0.0700 ca         1 05B       0.453200
     19 N19          2.6050     2.4220     0.0840 nb         1 05B      -0.712000
     20 C20          2.5140     1.0940     0.0460 cp         1 05B       0.741500
     21 N21          1.3810     0.4100    -0.0060 nb         1 05B      -0.715000
     22 C22          3.7760     0.3270     0.0620 cp         1 05B      -0.161500
     23 C23          3.7560    -1.0650     0.0320 ca         1 05B      -0.077000
     24 C24          4.9300    -1.8200     0.0500 ca         1 05B      -0.133000
     25 C25          5.0030     1.0160     0.1100 ca         1 05B      -0.068000
     26 C26          6.1440     0.2610     0.1270 ca         1 05B       0.030100
     27 C27          6.1150    -1.1260     0.0990 ca         1 05B       0.074100
     28 O28          7.3780    -1.6030     0.1080 os         1 05B      -0.318900
     29 C29          8.2240    -0.4830     0.3440 c5         1 05B       0.327200
     30 O30          7.4330     0.6800     0.1480 os         1 05B      -0.319900
     31 H2          -6.2470    -1.3650    -0.7020 h1         1 05B       0.044200
     32 H2A         -4.9970    -1.1690    -1.9190 h1         1 05B       0.044200
     33 HN3         -5.0990    -3.3230    -0.3850 hn         1 05B       0.315500
     34 HN5         -7.8950     1.8730     0.7870 hn         1 05B       0.360800
     35 H6          -4.5920     2.1330    -0.5520 hc         1 05B       0.055200
     36 H6A         -4.8840     1.1450    -1.9810 hc         1 05B       0.055200
     37 H7          -4.9130    -0.8190     1.8440 hc         1 05B       0.055200
     38 H7A         -4.5760     0.9030     1.8120 hc         1 05B       0.055200
     39 H8          -6.8900     0.5630     2.4530 h1         1 05B       0.033700
     40 H8A         -7.2070    -0.4420     1.0470 h1         1 05B       0.033700
     41 H9          -7.1890     0.6930    -1.2230 h1         1 05B       0.033700
     42 H9A         -6.8850     2.4240    -1.2540 h1         1 05B       0.033700
     43 H13         -0.3090    -1.7960    -0.1090 ha         1 05B       0.182000
     44 HN15        -2.4480     1.8230    -0.0830 hn         1 05B       0.299700
     45 H17         -0.6730     3.0740     0.0100 ha         1 05B       0.141000
     46 H18          1.5330     4.1760     0.1010 h4         1 05B       0.024100
     47 H23          2.8050    -1.5790    -0.0040 ha         1 05B       0.161000
     48 H24          4.9020    -2.9000     0.0250 ha         1 05B       0.156000
     49 H25          5.0350     2.0960     0.1280 ha         1 05B       0.172000
     50 H29          8.5970    -0.5130     1.3740 h2         1 05B       0.064700
     51 H29A         9.0530    -0.4920    -0.3630 h2         1 05B       0.064700
@<TRIPOS>BOND
     1     1     2 1   
     2     1     6 1   
     3     1     7 1   
     4     1    11 1   
     5     2     3 1   
     6     2    31 1   
     7     2    32 1   
     8     3     4 1   
     9     3    33 1   
    10     4    10 2   
    11     4    12 1   
    12     5     8 1   
    13     5     9 1   
    14     5    34 1   
    15     6     9 1   
    16     6    35 1   
    17     6    36 1   
    18     7     8 1   
    19     7    37 1   
    20     7    38 1   
    21     8    39 1   
    22     8    40 1   
    23     9    41 1   
    24     9    42 1   
    25    11    12 2   
    26    11    15 1   
    27    12    13 1   
    28    13    14 2   
    29    13    43 1   
    30    14    15 1   
    31    14    16 1   
    32    15    44 1   
    33    16    17 ar  
    34    16    21 ar  
    35    17    18 ar  
    36    17    45 1   
    37    18    19 ar  
    38    18    46 1   
    39    19    20 ar  
    40    20    21 ar  
    41    20    22 1   
    42    22    23 ar  
    43    22    25 ar  
    44    23    24 ar  
    45    23    47 1   
    46    24    27 ar  
    47    24    48 1   
    48    25    26 ar  
    49    25    49 1   
    50    26    27 ar  
    51    26    30 1   
    52    27    28 1   
    53    28    29 1   
    54    29    30 1   
    55    29    50 1   
    56    29    51 1   
@<TRIPOS>SUBSTRUCTURE
     1 05B         1 TEMP              0 ****  ****    0 ROOT
