@<TRIPOS>MOLECULE
05C
   74    79     1     0     0
SMALL
No Charge or Current Charge


@<TRIPOS>ATOM
      1 C10         -4.4620   -14.7130    13.0590 ca         1 05C       0.272000
      2 C13         -2.3870   -14.2350     9.9290 c6         1 05C      -0.003100
      3 C15         -1.8940   -12.2970    11.5060 ca         1 05C       0.162300
      4 C20          1.3710    -8.9500    10.5940 c3         1 05C       0.187600
      5 C21          1.9080    -7.6510    11.2770 c5         1 05C       0.180500
      6 C22          2.5240    -7.8750    12.6870 c5         1 05C      -0.078400
      7 C24          1.7380    -5.5740    12.3070 c5         1 05C       0.175800
      8 C28         -0.5930   -12.4120     9.4950 ca         1 05C       0.404900
      9 C01         -1.6010   -15.9470    13.3530 c3         1 05C      -0.038800
     10 C02         -2.8220   -16.2870    14.2110 ca         1 05C      -0.038300
     11 C03         -2.6130   -17.2530    15.2190 ca         1 05C      -0.128000
     12 C04         -3.6520   -17.6680    16.0570 ca         1 05C      -0.096000
     13 C05         -4.9280   -17.1250    15.8970 ca         1 05C      -0.113000
     14 C06         -5.1700   -16.1590    14.9040 ca         1 05C      -0.029000
     15 C07         -6.4780   -15.6540    14.7950 ca         1 05C      -0.111000
     16 C08         -6.7860   -14.6910    13.8320 ca         1 05C      -0.094000
     17 C09         -5.7820   -14.2270    12.9770 ca         1 05C      -0.158000
     18 C12         -3.7290   -14.3550    10.6940 c6         1 05C       0.183800
     19 C14         -1.6010   -12.9680    10.3040 ca         1 05C      -0.246300
     20 C16         -2.9860   -12.7870    12.4750 c6         1 05C       0.124500
     21 C18         -0.3080   -10.7020    11.0160 ca         1 05C       0.390300
     22 C23          2.5690    -6.4380    13.2970 c5         1 05C      -0.082400
     23 C30          0.0990   -12.1110     7.0890 c6         1 05C       0.212800
     24 C31          0.0400   -12.8900     5.7320 c6         1 05C       0.145800
     25 C33          0.5170   -15.0020     6.8860 c6         1 05C       0.154800
     26 C34          0.5800   -14.2700     8.2770 c6         1 05C       0.224500
     27 C35          2.0430   -14.0150     8.7340 c3         1 05C      -0.113100
     28 C36         -4.1280   -15.7090    14.0400 ca         1 05C      -0.022000
     29 N11         -3.5390   -14.1390    12.1540 nh         1 05C      -0.782400
     30 N17         -1.2490   -11.1700    11.8590 nb         1 05C      -0.224000
     31 N25          0.9210    -6.5820    11.5960 n3         1 05C      -0.733600
     32 N27          0.0400   -11.2790     9.8470 nb         1 05C      -0.336000
     33 N29         -0.1990   -12.9870     8.2710 nh         1 05C      -0.769300
     34 N32          0.8720   -14.1270     5.7310 n7         1 05C      -0.859400
     35 H1          -2.5870   -14.2580     8.8500 hc         1 05C       0.052700
     36 H2          -1.7760   -15.1180    10.1510 hc         1 05C       0.052700
     37 H3           0.9880    -8.6950     9.5980 h1         1 05C       0.046200
     38 H4           2.2080    -9.6490    10.4660 h1         1 05C       0.046200
     39 H5           2.6810    -7.2490    10.6050 h1         1 05C       0.037700
     40 H6           1.8960    -8.5320    13.3000 hc         1 05C       0.047700
     41 H7           3.5160    -8.3370    12.6330 hc         1 05C       0.047700
     42 H8           2.3990    -5.0400    11.6090 h1         1 05C       0.032700
     43 H9           1.1220    -4.8270    12.8270 h1         1 05C       0.032700
     44 H10         -0.5280    -5.2500    10.7880 h1         1 05C       0.027033
     45 H11          0.8090    -5.6490     9.6810 h1         1 05C       0.027033
     46 H12         -0.4730    -6.8420    10.0050 h1         1 05C       0.027033
     47 H13         -1.3130   -14.8960    13.4600 hc         1 05C       0.044367
     48 H14         -0.7230   -16.5400    13.6350 hc         1 05C       0.044367
     49 H15         -1.7900   -16.1600    12.2960 hc         1 05C       0.044367
     50 H16         -1.6290   -17.6950    15.3570 ha         1 05C       0.109000
     51 H17         -3.4690   -18.4150    16.8260 ha         1 05C       0.113000
     52 H18         -5.7320   -17.4560    16.5500 ha         1 05C       0.112000
     53 H19         -7.2620   -16.0080    15.4600 ha         1 05C       0.113000
     54 H20         -7.7980   -14.3010    13.7510 ha         1 05C       0.113000
     55 H21         -6.0310   -13.4690    12.2390 ha         1 05C       0.112000
     56 H22         -4.4350   -13.6120    10.2950 h1         1 05C       0.040200
     57 H23         -4.1570   -15.3510    10.5060 h1         1 05C       0.040200
     58 H24         -2.5630   -12.7940    13.4900 h1         1 05C       0.068200
     59 H25         -3.7970   -12.0440    12.4730 h1         1 05C       0.068200
     60 H26          2.1300    -6.4250    14.3010 hc         1 05C       0.058700
     61 H27          3.5930    -6.0580    13.3890 hc         1 05C       0.058700
     62 H28          1.0980   -11.6630     7.1940 h1         1 05C       0.056200
     63 H29         -0.6220   -11.2820     7.0410 h1         1 05C       0.056200
     64 H30          0.3640   -12.2270     4.9170 h1         1 05C       0.037700
     65 H31         -1.0070   -13.1640     5.5330 h1         1 05C       0.037700
     66 H32         -0.5080   -15.3770     6.7420 h1         1 05C       0.038700
     67 H33          1.1800   -15.8800     6.9010 h1         1 05C       0.038700
     68 H34          0.1440   -14.9600     9.0130 h1         1 05C       0.062700
     69 H35          2.0740   -13.5580     9.7300 hc         1 05C       0.045033
     70 H36          2.6030   -14.9560     8.7880 hc         1 05C       0.045033
     71 H37          2.5760   -13.3520     8.0430 hc         1 05C       0.045033
     72 H39          0.7090   -14.6410     4.8560 hn         1 05C       0.414000
     73 O19          0.3310    -9.5460    11.4050 os         1 05C      -0.425300
     74 C26          0.1430    -6.0530    10.4560 c3         1 05C       0.166100
@<TRIPOS>BOND
     1     1    17 ar  
     2     1    28 ar  
     3     1    29 1   
     4     2    18 1   
     5     2    19 1   
     6     2    35 1   
     7     2    36 1   
     8     3    19 ar  
     9     3    20 1   
    10     3    30 ar  
    11     4     5 1   
    12     4    37 1   
    13     4    38 1   
    14     4    73 1   
    15     5     6 1   
    16     5    31 1   
    17     5    39 1   
    18     6    22 1   
    19     6    40 1   
    20     6    41 1   
    21     7    22 1   
    22     7    31 1   
    23     7    42 1   
    24     7    43 1   
    25     8    19 ar  
    26     8    32 ar  
    27     8    33 1   
    28     9    10 1   
    29     9    47 1   
    30     9    48 1   
    31     9    49 1   
    32    10    11 ar  
    33    10    28 ar  
    34    11    12 ar  
    35    11    50 1   
    36    12    13 ar  
    37    12    51 1   
    38    13    14 ar  
    39    13    52 1   
    40    14    15 ar  
    41    14    28 ar  
    42    15    16 ar  
    43    15    53 1   
    44    16    17 ar  
    45    16    54 1   
    46    17    55 1   
    47    18    29 1   
    48    18    56 1   
    49    18    57 1   
    50    20    29 1   
    51    20    58 1   
    52    20    59 1   
    53    21    30 ar  
    54    21    32 ar  
    55    21    73 1   
    56    22    60 1   
    57    22    61 1   
    58    23    24 1   
    59    23    33 1   
    60    23    62 1   
    61    23    63 1   
    62    24    34 1   
    63    24    64 1   
    64    24    65 1   
    65    25    26 1   
    66    25    34 1   
    67    25    66 1   
    68    25    67 1   
    69    26    27 1   
    70    26    33 1   
    71    26    68 1   
    72    27    69 1   
    73    27    70 1   
    74    27    71 1   
    75    31    74 1   
    76    34    72 1   
    77    44    74 1   
    78    45    74 1   
    79    46    74 1   
@<TRIPOS>SUBSTRUCTURE
     1 05C         1 TEMP              0 ****  ****    0 ROOT
