@<TRIPOS>MOLECULE
05C
   74    79     1     0     0
SMALL
bcc


@<TRIPOS>ATOM
      1 C10         -4.2870   -14.7290    12.9280 ca         1 05C       0.133600
      2 C13         -2.4450   -14.1950     9.7730 c6         1 05C      -0.003100
      3 C15         -1.7510   -12.4630    11.4340 ca         1 05C       0.490600
      4 C20          1.3970    -9.1890    10.6100 c3         1 05C       0.164400
      5 C21          1.8880    -7.9380    11.3120 c5         1 05C       0.180500
      6 C22          2.2770    -8.1450    12.7890 c5         1 05C      -0.078400
      7 C24          0.8800    -6.2450    12.6190 c5         1 05C       0.175800
      8 C28         -0.5520   -12.4730     9.3980 ca         1 05C       0.733200
      9 C01         -1.3550   -15.7200    13.3530 c3         1 05C      -0.038800
     10 C02         -2.4630   -15.7570    14.3730 ca         1 05C      -0.038300
     11 C03         -2.1460   -16.2850    15.6050 ca         1 05C      -0.146000
     12 C04         -3.1000   -16.4920    16.6150 ca         1 05C      -0.114000
     13 C05         -4.4110   -16.2130    16.3660 ca         1 05C      -0.131000
     14 C06         -4.8010   -15.6700    15.1210 ca         1 05C      -0.029000
     15 C07         -6.1760   -15.4510    14.8670 ca         1 05C      -0.129000
     16 C08         -6.5880   -14.9390    13.6730 ca         1 05C      -0.112000
     17 C09         -5.6350   -14.5540    12.7160 ca         1 05C      -0.176000
     18 C12         -3.7220   -14.2260    10.5970 c6         1 05C       0.183800
     19 C14         -1.5410   -13.0770    10.2110 ca         1 05C      -0.376900
     20 C16         -2.7980   -12.9570    12.3910 c6         1 05C       0.124500
     21 C18         -0.2400   -10.8710    10.9810 ca         1 05C       0.916300
     22 C23          1.2180    -7.3730    13.5760 c5         1 05C      -0.082400
     23 C30          0.4970   -12.0370     7.2600 c6         1 05C       0.212800
     24 C31          0.3130   -12.4780     5.8190 c6         1 05C       0.145800
     25 C33         -0.0720   -14.7160     6.4940 c6         1 05C       0.154800
     26 C34          0.1060   -14.3550     7.9630 c6         1 05C       0.224500
     27 C35          1.5000   -14.6890     8.4890 c3         1 05C      -0.113100
     28 C36         -3.8230   -15.3700    14.1240 ca         1 05C      -0.022000
     29 N11         -3.3510   -14.2350    11.9980 nh         1 05C      -0.644000
     30 N17         -1.1040   -11.3700    11.8420 nb         1 05C      -0.750000
     31 N25          0.8550    -6.9040    11.3290 n3         1 05C      -0.733600
     32 N27          0.0710   -11.3640     9.8000 nb         1 05C      -0.862000
     33 N29         -0.2300   -12.9360     8.1490 nh         1 05C      -0.769300
     34 N32          0.7440   -13.8530     5.6660 n7         1 05C      -0.804200
     35 H1          -2.6940   -14.0790     8.7140 hc         1 05C       0.052700
     36 H2          -1.9580   -15.1690     9.8780 hc         1 05C       0.052700
     37 H3           1.0300    -8.9440     9.6090 h1         1 05C       0.046200
     38 H4           2.2190    -9.9020    10.4910 h1         1 05C       0.046200
     39 H5           2.7720    -7.6070    10.7450 h1         1 05C       0.037700
     40 H6           2.3400    -9.1960    13.0720 hc         1 05C       0.047700
     41 H7           3.2610    -7.7080    12.9710 hc         1 05C       0.047700
     42 H8           1.6510    -5.4570    12.6760 h1         1 05C       0.032700
     43 H9          -0.0810    -5.7690    12.8310 h1         1 05C       0.032700
     44 H10          0.0260    -5.3320    10.2400 h1         1 05C       0.027033
     45 H11          1.7930    -5.4050    10.1440 h1         1 05C       0.027033
     46 H12          0.7960    -6.5750     9.2650 h1         1 05C       0.027033
     47 H13         -0.9930   -14.7150    13.1380 hc         1 05C       0.044367
     48 H14         -0.5050   -16.2880    13.7310 hc         1 05C       0.044367
     49 H15         -1.6560   -16.1600    12.4050 hc         1 05C       0.044367
     50 H16         -1.1210   -16.5800    15.7940 ha         1 05C       0.127000
     51 H17         -2.7930   -16.9040    17.5670 ha         1 05C       0.131000
     52 H18         -5.1730   -16.4100    17.1110 ha         1 05C       0.130000
     53 H19         -6.8940   -15.7110    15.6360 ha         1 05C       0.131000
     54 H20         -7.6400   -14.7860    13.4710 ha         1 05C       0.131000
     55 H21         -5.9740   -14.0750    11.8070 ha         1 05C       0.130000
     56 H22         -4.3630   -13.3700    10.3340 h1         1 05C       0.040200
     57 H23         -4.2790   -15.1340    10.3640 h1         1 05C       0.040200
     58 H24         -2.3560   -13.0230    13.3870 h1         1 05C       0.068200
     59 H25         -3.5810   -12.1820    12.4580 h1         1 05C       0.068200
     60 H26          0.3370    -7.9930    13.7550 hc         1 05C       0.058700
     61 H27          1.5790    -7.0160    14.5400 hc         1 05C       0.058700
     62 H28          1.5640   -11.9930     7.5030 h1         1 05C       0.056200
     63 H29          0.1020   -11.0300     7.3770 h1         1 05C       0.056200
     64 H30          0.9150   -11.8320     5.1780 h1         1 05C       0.037700
     65 H31         -0.7420   -12.3320     5.5370 h1         1 05C       0.037700
     66 H32         -1.1440   -14.6460     6.2490 h1         1 05C       0.038700
     67 H33          0.2290   -15.7550     6.3480 h1         1 05C       0.038700
     68 H34         -0.6060   -14.9600     8.5170 h1         1 05C       0.062700
     69 H35          1.5930   -14.4310     9.5440 hc         1 05C       0.045033
     70 H36          1.6800   -15.7610     8.3960 hc         1 05C       0.045033
     71 H37          2.2870   -14.1730     7.9410 hc         1 05C       0.045033
     72 H39          0.6700   -14.1340     4.6970 hn         1 05C       0.358800
     73 O19          0.3590    -9.7610    11.3970 os         1 05C      -0.402100
     74 C26          0.8770    -6.0140    10.1980 c3         1 05C       0.166100
@<TRIPOS>BOND
     1     1    17 ar  
     2     1    28 ar  
     3     1    29 1   
     4     2    18 1   
     5     2    19 1   
     6     2    35 1   
     7     2    36 1   
     8     3    19 ar  
     9     3    20 1   
    10     3    30 ar  
    11     4     5 1   
    12     4    37 1   
    13     4    38 1   
    14     4    73 1   
    15     5     6 1   
    16     5    31 1   
    17     5    39 1   
    18     6    22 1   
    19     6    40 1   
    20     6    41 1   
    21     7    22 1   
    22     7    31 1   
    23     7    42 1   
    24     7    43 1   
    25     8    19 ar  
    26     8    32 ar  
    27     8    33 1   
    28     9    10 1   
    29     9    47 1   
    30     9    48 1   
    31     9    49 1   
    32    10    11 ar  
    33    10    28 ar  
    34    11    12 ar  
    35    11    50 1   
    36    12    13 ar  
    37    12    51 1   
    38    13    14 ar  
    39    13    52 1   
    40    14    15 ar  
    41    14    28 ar  
    42    15    16 ar  
    43    15    53 1   
    44    16    17 ar  
    45    16    54 1   
    46    17    55 1   
    47    18    29 1   
    48    18    56 1   
    49    18    57 1   
    50    20    29 1   
    51    20    58 1   
    52    20    59 1   
    53    21    30 ar  
    54    21    32 ar  
    55    21    73 1   
    56    22    60 1   
    57    22    61 1   
    58    23    24 1   
    59    23    33 1   
    60    23    62 1   
    61    23    63 1   
    62    24    34 1   
    63    24    64 1   
    64    24    65 1   
    65    25    26 1   
    66    25    34 1   
    67    25    66 1   
    68    25    67 1   
    69    26    27 1   
    70    26    33 1   
    71    26    68 1   
    72    27    69 1   
    73    27    70 1   
    74    27    71 1   
    75    31    74 1   
    76    34    72 1   
    77    44    74 1   
    78    45    74 1   
    79    46    74 1   
@<TRIPOS>SUBSTRUCTURE
     1 05C         1 TEMP              0 ****  ****    0 ROOT
