@<TRIPOS>MOLECULE
05D
   46    48     1     0     0
SMALL
No Charge or Current Charge


@<TRIPOS>ATOM
      1 C4          13.7060    -1.7570   -21.8990 ca         1 05D       0.296900
      2 C5          17.7540    -2.5070   -23.5740 cc         1 05D      -0.132000
      3 C6          18.9980    -3.0710   -23.4830 cd         1 05D      -0.201300
      4 C7          15.6330    -3.1030   -22.4880 ca         1 05D       0.039800
      5 C8          15.1140    -1.8470   -22.0750 ca         1 05D       0.211000
      6 C10         16.7570     1.5160   -22.6100 c6         1 05D      -0.070900
      7 C13         16.9230    -0.7440   -20.6960 c6         1 05D       0.191300
      8 C15         20.2530    -2.6120   -24.1750 c3         1 05D      -0.006800
      9 C17         17.9450     4.4390   -20.7490 c3         1 05D       0.093300
     10 C1          14.7300    -4.1700   -22.6820 ca         1 05D      -0.137000
     11 C2          13.3580    -3.9720   -22.4730 ca         1 05D       0.321900
     12 C3          18.8820    -4.1760   -22.5980 cd         1 05D       0.249900
     13 C9          19.0480     2.4100   -21.8210 c          1 05D       0.600100
     14 C11         18.1910     0.0790   -21.0280 c6         1 05D      -0.070900
     15 C12         15.5320     0.6490   -22.2290 c6         1 05D       0.191300
     16 C14         17.8220     1.5190   -21.4790 c6         1 05D      -0.139700
     17 C16         20.2810     4.5930   -21.7020 c3         1 05D       0.093300
     18 N18         12.8400    -2.7850   -22.0890 nb         1 05D      -0.650000
     19 N19         17.6610    -4.3450   -22.1230 nc         1 05D      -0.524800
     20 N20         16.9970    -3.3050   -22.7290 na         1 05D       0.209000
     21 N21         15.9620    -0.7210   -21.8350 nh         1 05D      -0.789400
     22 O23         19.9690     1.9440   -22.4810 o          1 05D      -0.600100
     23 H1          13.2520    -0.8200   -21.5780 h4         1 05D       0.019100
     24 H2          17.3640    -1.6530   -24.1120 h4         1 05D       0.172000
     25 H3          17.2040     1.1210   -23.5330 hc         1 05D       0.062450
     26 H4          16.4290     2.5390   -22.8360 hc         1 05D       0.062450
     27 H5          16.4450    -0.3270   -19.7970 h1         1 05D       0.041700
     28 H6          17.2200    -1.7750   -20.4560 h1         1 05D       0.041700
     29 H7          21.1390    -3.1080   -23.7620 hc         1 05D       0.040367
     30 H8          20.2120    -2.8360   -25.2480 hc         1 05D       0.040367
     31 H9          20.3910    -1.5310   -24.0610 hc         1 05D       0.040367
     32 H10         18.1050     5.5240   -20.7100 h1         1 05D       0.039867
     33 H11         17.0240     4.2500   -21.3140 h1         1 05D       0.039867
     34 H12         17.8280     4.0650   -19.7240 h1         1 05D       0.039867
     35 H13         15.0850    -5.1460   -23.0000 ha         1 05D       0.148000
     36 H14         12.6500    -4.7860   -22.6230 h4         1 05D       0.026100
     37 H15         19.6640    -4.8590   -22.2890 h4         1 05D       0.038100
     38 H16         18.7520    -0.4300   -21.8230 hc         1 05D       0.062450
     39 H17         18.8510     0.1120   -20.1510 hc         1 05D       0.062450
     40 H18         14.9890     1.1260   -21.4000 h1         1 05D       0.041700
     41 H19         14.8500     0.6050   -23.0900 h1         1 05D       0.041700
     42 H20         17.3140     1.9870   -20.6280 hc         1 05D       0.054700
     43 H21         20.2580     5.5290   -21.1300 h1         1 05D       0.039867
     44 H22         21.1950     4.0470   -21.4360 h1         1 05D       0.039867
     45 H23         20.3020     4.8300   -22.7740 h1         1 05D       0.039867
     46 N22         19.0920     3.7640   -21.4000 n          1 05D      -0.412800
@<TRIPOS>BOND
     1     1     5 ar  
     2     1    18 ar  
     3     1    23 1   
     4     2     3 2   
     5     2    20 1   
     6     2    24 1   
     7     3     8 1   
     8     3    12 1   
     9     4     5 ar  
    10     4    10 ar  
    11     4    20 1   
    12     5    21 1   
    13     6    15 1   
    14     6    16 1   
    15     6    25 1   
    16     6    26 1   
    17     7    14 1   
    18     7    21 1   
    19     7    27 1   
    20     7    28 1   
    21     8    29 1   
    22     8    30 1   
    23     8    31 1   
    24     9    32 1   
    25     9    33 1   
    26     9    34 1   
    27     9    46 1   
    28    10    11 ar  
    29    10    35 1   
    30    11    18 ar  
    31    11    36 1   
    32    12    19 2   
    33    12    37 1   
    34    13    16 1   
    35    13    22 2   
    36    13    46 1   
    37    14    16 1   
    38    14    38 1   
    39    14    39 1   
    40    15    21 1   
    41    15    40 1   
    42    15    41 1   
    43    16    42 1   
    44    17    43 1   
    45    17    44 1   
    46    17    45 1   
    47    17    46 1   
    48    19    20 1   
@<TRIPOS>SUBSTRUCTURE
     1 05D         1 TEMP              0 ****  ****    0 ROOT
