@<TRIPOS>MOLECULE
05D
   46    48     1     0     0
SMALL
abcg2


@<TRIPOS>ATOM
      1 C4          13.8600    -1.5420   -21.9790 ca         1 05D       0.296900
      2 C5          17.8810    -2.6070   -23.4840 cc         1 05D      -0.132000
      3 C6          19.0370    -3.3360   -23.5540 cd         1 05D      -0.201300
      4 C7          15.6560    -3.0240   -22.4600 ca         1 05D       0.039800
      5 C8          15.2340    -1.7170   -22.1620 ca         1 05D       0.211000
      6 C10         16.8020     1.6300   -22.5590 c6         1 05D      -0.070900
      7 C13         17.0660    -0.7310   -20.9360 c6         1 05D       0.191300
      8 C15         20.3050    -2.9800   -24.2530 c3         1 05D      -0.006800
      9 C17         17.7760     4.3700   -20.6080 c3         1 05D       0.093300
     10 C1          14.7200    -4.0460   -22.4930 ca         1 05D      -0.137000
     11 C2          13.3880    -3.7430   -22.2710 ca         1 05D       0.321900
     12 C3          18.7460    -4.4980   -22.8040 cd         1 05D       0.249900
     13 C9          18.9840     2.5210   -21.7140 c          1 05D       0.600100
     14 C11         18.2670     0.1690   -21.1660 c6         1 05D      -0.070900
     15 C12         15.6450     0.6790   -22.2910 c6         1 05D       0.191300
     16 C14         17.8110     1.6050   -21.4040 c6         1 05D      -0.139700
     17 C16         20.0340     4.6710   -21.6240 c3         1 05D       0.093300
     18 N18         12.9580    -2.5110   -22.0370 nb         1 05D      -0.650000
     19 N19         17.5220    -4.4840   -22.3270 nc         1 05D      -0.524800
     20 N20         17.0000    -3.3220   -22.7370 na         1 05D       0.209000
     21 N21         16.1460    -0.6660   -22.0700 nh         1 05D      -0.789400
     22 O23         19.9770     2.0950   -22.2920 o          1 05D      -0.600100
     23 H1          13.4750    -0.5510   -21.7640 h4         1 05D       0.019100
     24 H2          17.6230    -1.6490   -23.9050 h4         1 05D       0.172000
     25 H3          17.3020     1.3400   -23.4880 hc         1 05D       0.062450
     26 H4          16.3990     2.6340   -22.7100 hc         1 05D       0.062450
     27 H5          16.5470    -0.4340   -20.0120 h1         1 05D       0.041700
     28 H6          17.4010    -1.7570   -20.7880 h1         1 05D       0.041700
     29 H7          21.1300    -2.8580   -23.5490 hc         1 05D       0.040367
     30 H8          20.6000    -3.7510   -24.9650 hc         1 05D       0.040367
     31 H9          20.2000    -2.0450   -24.8010 hc         1 05D       0.040367
     32 H10         17.7670     5.4500   -20.7260 h1         1 05D       0.039867
     33 H11         16.8170     4.0060   -20.9710 h1         1 05D       0.039867
     34 H12         17.8480     4.1490   -19.5400 h1         1 05D       0.039867
     35 H13         15.0210    -5.0600   -22.7160 ha         1 05D       0.148000
     36 H14         12.6420    -4.5290   -22.2990 h4         1 05D       0.026100
     37 H15         19.3980    -5.3350   -22.5990 h4         1 05D       0.038100
     38 H16         18.8330    -0.2000   -22.0240 hc         1 05D       0.062450
     39 H17         18.9210     0.1140   -20.2940 hc         1 05D       0.062450
     40 H18         15.0700     1.0520   -21.4290 h1         1 05D       0.041700
     41 H19         14.9760     0.6750   -23.1530 h1         1 05D       0.041700
     42 H20         17.2970     1.9400   -20.4980 hc         1 05D       0.054700
     43 H21         19.7990     5.6880   -21.3230 h1         1 05D       0.039867
     44 H22         20.9140     4.3480   -21.0650 h1         1 05D       0.039867
     45 H23         20.2910     4.6820   -22.6830 h1         1 05D       0.039867
     46 N22         18.8850     3.8210   -21.3650 n          1 05D      -0.412800
@<TRIPOS>BOND
     1     1     5 ar  
     2     1    18 ar  
     3     1    23 1   
     4     2     3 2   
     5     2    20 1   
     6     2    24 1   
     7     3     8 1   
     8     3    12 1   
     9     4     5 ar  
    10     4    10 ar  
    11     4    20 1   
    12     5    21 1   
    13     6    15 1   
    14     6    16 1   
    15     6    25 1   
    16     6    26 1   
    17     7    14 1   
    18     7    21 1   
    19     7    27 1   
    20     7    28 1   
    21     8    29 1   
    22     8    30 1   
    23     8    31 1   
    24     9    32 1   
    25     9    33 1   
    26     9    34 1   
    27     9    46 1   
    28    10    11 ar  
    29    10    35 1   
    30    11    18 ar  
    31    11    36 1   
    32    12    19 2   
    33    12    37 1   
    34    13    16 1   
    35    13    22 2   
    36    13    46 1   
    37    14    16 1   
    38    14    38 1   
    39    14    39 1   
    40    15    21 1   
    41    15    40 1   
    42    15    41 1   
    43    16    42 1   
    44    17    43 1   
    45    17    44 1   
    46    17    45 1   
    47    17    46 1   
    48    19    20 1   
@<TRIPOS>SUBSTRUCTURE
     1 05D         1 TEMP              0 ****  ****    0 ROOT
