@<TRIPOS>MOLECULE
05F
   75    81     1     0     0
SMALL
No Charge or Current Charge


@<TRIPOS>ATOM
      1 C14         -2.2360   -12.9010    10.3810 ca         1 05F      -0.253300
      2 C10         -5.0670   -14.6940    13.1400 ca         1 05F       0.272000
      3 C12         -4.3260   -14.3460    10.7760 c6         1 05F       0.184800
      4 C13         -2.9830   -14.1940    10.0190 c6         1 05F      -0.003100
      5 C02         -3.3900   -16.2030    14.3240 ca         1 05F      -0.038300
      6 C03         -3.1590   -17.1490    15.3460 ca         1 05F      -0.128000
      7 C04         -4.1920   -17.5850    16.1820 ca         1 05F      -0.096000
      8 C05         -5.4820   -17.0810    16.0060 ca         1 05F      -0.113000
      9 C06         -5.7460   -16.1370    14.9990 ca         1 05F      -0.029000
     10 C07         -7.0670   -15.6710    14.8730 ca         1 05F      -0.111000
     11 C08         -7.3960   -14.7310    13.8960 ca         1 05F      -0.094000
     12 C09         -6.4000   -14.2480    13.0420 ca         1 05F      -0.158000
     13 C15         -2.5620   -12.2220    11.5700 ca         1 05F       0.164300
     14 C16         -3.6460   -12.7320    12.5380 c6         1 05F       0.124500
     15 C18         -1.0280   -10.5810    11.0700 ca         1 05F       0.390300
     16 C20          0.5970    -8.7830    10.6350 c3         1 05F       0.187600
     17 C21          1.0830    -7.4560    11.3000 c5         1 05F       0.177500
     18 C22          1.6910    -7.6350    12.7200 c5         1 05F      -0.077400
     19 C23          1.6830    -6.1870    13.3050 c5         1 05F      -0.081400
     20 C24          0.8330    -5.3690    12.2920 c5         1 05F       0.170800
     21 C28         -1.2360   -12.3250     9.5720 ca         1 05F       0.409900
     22 C30         -0.1960   -14.2480     8.2610 c5         1 05F       0.201500
     23 C31          1.3020   -13.8020     8.2450 c5         1 05F      -0.087400
     24 C32          1.2820   -12.4030     7.5230 c5         1 05F      -0.087400
     25 C33         -0.2320   -12.1560     7.2190 c5         1 05F       0.201500
     26 C34         -0.6880   -12.7610     5.8370 c6         1 05F       0.164800
     27 C36         -0.6380   -15.0020     6.9500 c6         1 05F       0.164800
     28 C37         -4.7110   -15.6670    14.1360 ca         1 05F      -0.021000
     29 N11         -4.1550   -14.1050    12.2340 nh         1 05F      -0.783400
     30 N17         -1.9600   -11.0680    11.9120 nb         1 05F      -0.223000
     31 N25          0.0590    -6.4150    11.5900 n3         1 05F      -0.722600
     32 N27         -0.6510   -11.1640     9.9140 nb         1 05F      -0.338000
     33 N29         -0.8100   -12.9060     8.3590 nh         1 05F      -0.759300
     34 N35         -0.3410   -14.2170     5.7040 n7         1 05F      -0.874400
     35 O19         -0.4330    -9.3970    11.4450 os         1 05F      -0.421300
     36 H1          -5.0520   -13.6300    10.3620 h1         1 05F       0.040200
     37 H2          -4.7230   -15.3570    10.5990 h1         1 05F       0.040200
     38 H3          -3.1790   -14.2350     8.9390 hc         1 05F       0.051200
     39 H4          -2.3490   -15.0580    10.2530 hc         1 05F       0.051200
     40 H8          -2.1640   -17.5600    15.4970 ha         1 05F       0.109000
     41 H9          -3.9920   -18.3160    16.9630 ha         1 05F       0.113000
     42 H10         -6.2810   -17.4280    16.6580 ha         1 05F       0.112000
     43 H11         -7.8450   -16.0410    15.5380 ha         1 05F       0.113000
     44 H12         -8.4190   -14.3720    13.8030 ha         1 05F       0.113000
     45 H13         -6.6660   -13.5080    12.2920 ha         1 05F       0.112000
     46 H14         -3.2310   -12.7110    13.5570 h1         1 05F       0.069200
     47 H15         -4.4800   -12.0140    12.5200 h1         1 05F       0.069200
     48 H16          0.2170    -8.5590     9.6300 h1         1 05F       0.045200
     49 H17          1.4570    -9.4570    10.5290 h1         1 05F       0.045200
     50 H18          1.8490    -7.0390    10.6290 h1         1 05F       0.033700
     51 H19          1.0770    -8.3010    13.3390 hc         1 05F       0.047700
     52 H20          2.6970    -8.0660    12.6850 hc         1 05F       0.047700
     53 H21          1.2350    -6.1710    14.3040 hc         1 05F       0.056700
     54 H22          2.6930    -5.7720    13.3980 hc         1 05F       0.056700
     55 H23          1.4830    -4.8240    11.5910 h1         1 05F       0.033200
     56 H24          0.1870    -4.6350    12.7920 h1         1 05F       0.033200
     57 H25         -1.4250    -5.1460    10.7440 h1         1 05F       0.028033
     58 H26         -0.0640    -5.5200     9.6580 h1         1 05F       0.028033
     59 H27         -1.3090    -6.7490     9.9900 h1         1 05F       0.028033
     60 H28         -0.4090   -14.8890     9.1270 h1         1 05F       0.082700
     61 H29          1.9430   -14.5290     7.7340 hc         1 05F       0.053200
     62 H30          1.6870   -13.7010     9.2660 hc         1 05F       0.053200
     63 H31          1.8910   -12.3920     6.6120 hc         1 05F       0.053200
     64 H32          1.6820   -11.6230     8.1800 hc         1 05F       0.053200
     65 H33         -0.4880   -11.0860     7.2310 h1         1 05F       0.082700
     66 H34         -0.2270   -12.1980     5.0120 h1         1 05F       0.039450
     67 H35         -1.7780   -12.6410     5.7470 h1         1 05F       0.039450
     68 H36         -1.7210   -15.1910     7.0060 h1         1 05F       0.039450
     69 H37         -0.1380   -15.9800     6.8950 h1         1 05F       0.039450
     70 H39         -0.8440   -14.6250     4.9060 hn         1 05F       0.418000
     71 C01         -2.1730   -15.8380    13.4710 c3         1 05F      -0.037800
     72 C26         -0.7240    -5.9330    10.4330 c3         1 05F       0.162100
     73 H5          -1.9180   -14.7780    13.5660 hc         1 05F       0.044367
     74 H6          -1.2790   -16.4000    13.7670 hc         1 05F       0.044367
     75 H7          -2.3470   -16.0700    12.4150 hc         1 05F       0.044367
@<TRIPOS>BOND
     1     1     4 1   
     2     1    13 ar  
     3     1    21 ar  
     4     2    12 ar  
     5     2    28 ar  
     6     2    29 1   
     7     3     4 1   
     8     3    29 1   
     9     3    36 1   
    10     3    37 1   
    11     4    38 1   
    12     4    39 1   
    13     5     6 ar  
    14     5    28 ar  
    15     5    71 1   
    16     6     7 ar  
    17     6    40 1   
    18     7     8 ar  
    19     7    41 1   
    20     8     9 ar  
    21     8    42 1   
    22     9    10 ar  
    23     9    28 ar  
    24    10    11 ar  
    25    10    43 1   
    26    11    12 ar  
    27    11    44 1   
    28    12    45 1   
    29    13    14 1   
    30    13    30 ar  
    31    14    29 1   
    32    14    46 1   
    33    14    47 1   
    34    15    30 ar  
    35    15    32 ar  
    36    15    35 1   
    37    16    17 1   
    38    16    35 1   
    39    16    48 1   
    40    16    49 1   
    41    17    18 1   
    42    17    31 1   
    43    17    50 1   
    44    18    19 1   
    45    18    51 1   
    46    18    52 1   
    47    19    20 1   
    48    19    53 1   
    49    19    54 1   
    50    20    31 1   
    51    20    55 1   
    52    20    56 1   
    53    21    32 ar  
    54    21    33 1   
    55    22    23 1   
    56    22    27 1   
    57    22    33 1   
    58    22    60 1   
    59    23    24 1   
    60    23    61 1   
    61    23    62 1   
    62    24    25 1   
    63    24    63 1   
    64    24    64 1   
    65    25    26 1   
    66    25    33 1   
    67    25    65 1   
    68    26    34 1   
    69    26    66 1   
    70    26    67 1   
    71    27    34 1   
    72    27    68 1   
    73    27    69 1   
    74    31    72 1   
    75    34    70 1   
    76    57    72 1   
    77    58    72 1   
    78    59    72 1   
    79    71    73 1   
    80    71    74 1   
    81    71    75 1   
@<TRIPOS>SUBSTRUCTURE
     1 05F         1 TEMP              0 ****  ****    0 ROOT
