@<TRIPOS>MOLECULE
05F
   75    81     1     0     0
SMALL
abcg2


@<TRIPOS>ATOM
      1 C14         -2.2140   -13.0050    10.2770 ca         1 05F      -0.253300
      2 C10         -4.9300   -14.7000    12.9910 ca         1 05F       0.272000
      3 C12         -4.3530   -14.2200    10.6590 c6         1 05F       0.184800
      4 C13         -3.0710   -14.1610     9.8460 c6         1 05F      -0.003100
      5 C02         -3.1020   -15.6880    14.4580 ca         1 05F      -0.038300
      6 C03         -2.7870   -16.2070    15.6930 ca         1 05F      -0.128000
      7 C04         -3.7460   -16.4280    16.6960 ca         1 05F      -0.096000
      8 C05         -5.0590   -16.1720    16.4350 ca         1 05F      -0.113000
      9 C06         -5.4470   -15.6390    15.1840 ca         1 05F      -0.029000
     10 C07         -6.8230   -15.4460    14.9180 ca         1 05F      -0.111000
     11 C08         -7.2340   -14.9440    13.7180 ca         1 05F      -0.094000
     12 C09         -6.2790   -14.5480    12.7680 ca         1 05F      -0.158000
     13 C15         -2.4450   -12.3830    11.4900 ca         1 05F       0.164300
     14 C16         -3.4790   -12.8990    12.4480 c6         1 05F       0.124500
     15 C18         -0.9870   -10.7490    11.0130 ca         1 05F       0.390300
     16 C20          0.5040    -8.9600    10.5540 c3         1 05F       0.187600
     17 C21          0.9850    -7.7000    11.2460 c5         1 05F       0.177500
     18 C22          1.6200    -7.9330    12.6340 c5         1 05F      -0.077400
     19 C23          0.7410    -7.1390    13.6030 c5         1 05F      -0.081400
     20 C24          0.1830    -6.0470    12.7070 c5         1 05F       0.170800
     21 C28         -1.2390   -12.3840     9.4580 ca         1 05F       0.409900
     22 C30         -0.5430   -14.2760     8.0050 c5         1 05F       0.201500
     23 C31          0.9950   -14.2420     8.0950 c5         1 05F      -0.087400
     24 C32          1.3710   -12.8170     7.6450 c5         1 05F      -0.087400
     25 C33          0.0150   -12.1590     7.3480 c5         1 05F       0.201500
     26 C34         -0.4450   -12.4300     5.9180 c6         1 05F       0.164800
     27 C36         -1.0250   -14.6640     6.6140 c6         1 05F       0.164800
     28 C37         -4.4660   -15.3260    14.1950 ca         1 05F      -0.021000
     29 N11         -3.9960   -14.1960    12.0650 nh         1 05F      -0.783400
     30 N17         -1.8320   -11.2630    11.8830 nb         1 05F      -0.223000
     31 N25         -0.1060    -6.7580    11.4790 n3         1 05F      -0.722600
     32 N27         -0.6570   -11.2470     9.8390 nb         1 05F      -0.338000
     33 N29         -0.9130   -12.8720     8.2280 nh         1 05F      -0.759300
     34 N35         -0.3360   -13.8480     5.6330 n7         1 05F      -0.874400
     35 O19         -0.4260    -9.6110    11.4100 os         1 05F      -0.421300
     36 H1          -5.0170   -13.3880    10.3770 h1         1 05F       0.040200
     37 H2          -4.8810   -15.1470    10.4380 h1         1 05F       0.040200
     38 H3          -3.3130   -14.0690     8.7830 hc         1 05F       0.051200
     39 H4          -2.5510   -15.1160     9.9660 hc         1 05F       0.051200
     40 H8          -1.7580   -16.4830    15.8930 ha         1 05F       0.109000
     41 H9          -3.4400   -16.8320    17.6520 ha         1 05F       0.113000
     42 H10         -5.8240   -16.3810    17.1730 ha         1 05F       0.112000
     43 H11         -7.5430   -15.7150    15.6820 ha         1 05F       0.113000
     44 H12         -8.2870   -14.8110    13.5070 ha         1 05F       0.113000
     45 H13         -6.6190   -14.0800    11.8530 ha         1 05F       0.112000
     46 H14         -3.0370   -12.9470    13.4460 h1         1 05F       0.069200
     47 H15         -4.2830   -12.1450    12.5080 h1         1 05F       0.069200
     48 H16          0.0340    -8.7180     9.5960 h1         1 05F       0.045200
     49 H17          1.3550    -9.6130    10.3410 h1         1 05F       0.045200
     50 H18          1.7420    -7.2660    10.5730 h1         1 05F       0.033700
     51 H19          1.6880    -8.9890    12.8980 hc         1 05F       0.047700
     52 H20          2.6360    -7.5380    12.6400 hc         1 05F       0.047700
     53 H21         -0.0720    -7.7580    13.9880 hc         1 05F       0.056700
     54 H22          1.2950    -6.7470    14.4550 hc         1 05F       0.056700
     55 H23          0.9360    -5.2530    12.5640 h1         1 05F       0.033200
     56 H24         -0.7180    -5.5730    13.1040 h1         1 05F       0.033200
     57 H25         -1.2620    -5.2680    10.5940 h1         1 05F       0.028033
     58 H26          0.4290    -5.2580    10.0660 h1         1 05F       0.028033
     59 H27         -0.6890    -6.5020     9.4850 h1         1 05F       0.028033
     60 H28         -0.9800   -14.9370     8.7470 h1         1 05F       0.082700
     61 H29          1.4490   -15.0150     7.4760 hc         1 05F       0.053200
     62 H30          1.3040   -14.4220     9.1260 hc         1 05F       0.053200
     63 H31          2.0210   -12.8120     6.7700 hc         1 05F       0.053200
     64 H32          1.8830   -12.2750     8.4410 hc         1 05F       0.053200
     65 H33         -0.0010   -11.0900     7.5460 h1         1 05F       0.082700
     66 H34          0.1940   -11.8790     5.2240 h1         1 05F       0.039450
     67 H35         -1.4670   -12.0360     5.8060 h1         1 05F       0.039450
     68 H36         -2.1210   -14.5560     6.5870 h1         1 05F       0.039450
     69 H37         -0.7960   -15.7160     6.4300 h1         1 05F       0.039450
     70 H39         -0.6710   -14.0510     4.7020 hn         1 05F       0.418000
     71 C01         -1.9850   -15.6340    13.4470 c3         1 05F      -0.037800
     72 C26         -0.4110    -5.9080    10.3570 c3         1 05F       0.162100
     73 H5          -1.6450   -14.6230    13.2250 hc         1 05F       0.044367
     74 H6          -1.1260   -16.1800    13.8370 hc         1 05F       0.044367
     75 H7          -2.2690   -16.0890    12.5010 hc         1 05F       0.044367
@<TRIPOS>BOND
     1     1     4 1   
     2     1    13 ar  
     3     1    21 ar  
     4     2    12 ar  
     5     2    28 ar  
     6     2    29 1   
     7     3     4 1   
     8     3    29 1   
     9     3    36 1   
    10     3    37 1   
    11     4    38 1   
    12     4    39 1   
    13     5     6 ar  
    14     5    28 ar  
    15     5    71 1   
    16     6     7 ar  
    17     6    40 1   
    18     7     8 ar  
    19     7    41 1   
    20     8     9 ar  
    21     8    42 1   
    22     9    10 ar  
    23     9    28 ar  
    24    10    11 ar  
    25    10    43 1   
    26    11    12 ar  
    27    11    44 1   
    28    12    45 1   
    29    13    14 1   
    30    13    30 ar  
    31    14    29 1   
    32    14    46 1   
    33    14    47 1   
    34    15    30 ar  
    35    15    32 ar  
    36    15    35 1   
    37    16    17 1   
    38    16    35 1   
    39    16    48 1   
    40    16    49 1   
    41    17    18 1   
    42    17    31 1   
    43    17    50 1   
    44    18    19 1   
    45    18    51 1   
    46    18    52 1   
    47    19    20 1   
    48    19    53 1   
    49    19    54 1   
    50    20    31 1   
    51    20    55 1   
    52    20    56 1   
    53    21    32 ar  
    54    21    33 1   
    55    22    23 1   
    56    22    27 1   
    57    22    33 1   
    58    22    60 1   
    59    23    24 1   
    60    23    61 1   
    61    23    62 1   
    62    24    25 1   
    63    24    63 1   
    64    24    64 1   
    65    25    26 1   
    66    25    33 1   
    67    25    65 1   
    68    26    34 1   
    69    26    66 1   
    70    26    67 1   
    71    27    34 1   
    72    27    68 1   
    73    27    69 1   
    74    31    72 1   
    75    34    70 1   
    76    57    72 1   
    77    58    72 1   
    78    59    72 1   
    79    71    73 1   
    80    71    74 1   
    81    71    75 1   
@<TRIPOS>SUBSTRUCTURE
     1 05F         1 TEMP              0 ****  ****    0 ROOT
