@<TRIPOS>MOLECULE
05G
   44    46     1     0     0
SMALL
No Charge or Current Charge


@<TRIPOS>ATOM
      1 C13         -5.5700   -11.6450    47.7820 ca         1 05G      -0.116000
      2 C12         -4.4440   -12.4410    48.0660 ca         1 05G      -0.027000
      3 C11         -3.7520   -12.2760    49.2740 ca         1 05G      -0.196000
      4 C10         -4.1800   -11.3190    50.2030 ca         1 05G       0.198100
      5 C02         -8.2680    -7.4550    53.8230 ca         1 05G      -0.022300
      6 C03         -7.8880    -8.4190    52.8680 ca         1 05G      -0.094000
      7 C04         -6.6170    -9.0130    52.8960 ca         1 05G       0.080400
      8 C05         -5.6950    -8.6470    53.9000 ca         1 05G       0.129100
      9 C06         -6.0660    -7.6820    54.8610 ca         1 05G      -0.132000
     10 C07         -7.3480    -7.0720    54.8420 ca         1 05G      -0.170500
     11 C09         -5.3070   -10.5110    49.9360 ca         1 05G      -0.048600
     12 C14         -6.0090   -10.6740    48.7140 ca         1 05G       0.065000
     13 C15         -7.1410    -9.8910    48.4010 ca         1 05G      -0.145000
     14 C16         -7.8210   -10.0690    47.1840 ca         1 05G      -0.001000
     15 C17         -7.3800   -11.0290    46.2530 ca         1 05G      -0.237500
     16 C18         -6.2550   -11.8200    46.5630 ca         1 05G      -0.006000
     17 N01         -6.2790    -9.9780    51.9250 ne         1 05G      -0.281400
     18 N02         -5.6950    -9.5350    50.8940 nf         1 05G      -0.171400
     19 O04         -4.4450    -9.2530    53.9060 os         1 05G      -0.343100
     20 O05         -8.8320    -9.9300    44.4010 o          1 05G      -0.698533
     21 O06         -7.2110   -11.7200    43.7560 o          1 05G      -0.698533
     22 O07         -9.2650   -12.2980    45.0390 o          1 05G      -0.698533
     23 O08         -3.5020   -11.1770    51.3790 oh         1 05G      -0.563100
     24 S01         -7.7850    -5.7940    56.1480 s6         1 05G       1.263100
     25 S02         -8.2840   -11.2720    44.6560 s6         1 05G       1.268100
     26 H1          -4.1040   -13.1880    47.3510 ha         1 05G       0.105000
     27 H2          -2.8840   -12.8930    49.4910 ha         1 05G       0.111000
     28 H3         -10.2680    -7.0630    54.6090 hc         1 05G       0.051700
     29 H4          -9.6400    -5.7760    53.5560 hc         1 05G       0.051700
     30 H5         -10.2270    -7.2830    52.8660 hc         1 05G       0.051700
     31 H6          -8.5860    -8.7150    52.0890 ha         1 05G       0.123000
     32 H7          -5.3610    -7.3970    55.6340 ha         1 05G       0.142000
     33 H8          -2.5360    -9.5370    54.7040 h1         1 05G       0.034367
     34 H9          -3.1660    -7.8830    54.8460 h1         1 05G       0.034367
     35 H10         -3.7990    -9.1770    55.8990 h1         1 05G       0.034367
     36 H11         -7.5070    -9.1400    49.0960 ha         1 05G       0.120000
     37 H12         -8.6950    -9.4570    46.9700 ha         1 05G       0.122000
     38 H13         -5.9120   -12.5730    45.8570 ha         1 05G       0.127000
     39 H14         -4.0330   -10.5450    51.9190 ho         1 05G       0.533000
     40 C08         -3.4400    -8.9450    54.8880 c3         1 05G       0.152900
     41 O01         -8.9500    -6.4110    56.8010 o          1 05G      -0.695867
     42 O02         -6.5630    -5.7210    56.9650 o          1 05G      -0.695867
     43 O03         -8.0740    -4.6070    55.3300 o          1 05G      -0.695867
     44 C01         -9.6730    -6.8600    53.7120 c3         1 05G      -0.059800
@<TRIPOS>BOND
     1     1     2 ar  
     2     1    12 ar  
     3     1    16 ar  
     4     2     3 ar  
     5     2    26 1   
     6     3     4 ar  
     7     3    27 1   
     8     4    11 ar  
     9     4    23 1   
    10     5     6 ar  
    11     5    10 ar  
    12     5    44 1   
    13     6     7 ar  
    14     6    31 1   
    15     7     8 ar  
    16     7    17 1   
    17     8     9 ar  
    18     8    19 1   
    19     9    10 ar  
    20     9    32 1   
    21    10    24 1   
    22    11    12 ar  
    23    11    18 1   
    24    12    13 ar  
    25    13    14 ar  
    26    13    36 1   
    27    14    15 ar  
    28    14    37 1   
    29    15    16 ar  
    30    15    25 1   
    31    16    38 1   
    32    17    18 2   
    33    19    40 1   
    34    20    25 1   
    35    21    25 1   
    36    22    25 1   
    37    23    39 1   
    38    24    41 1   
    39    24    42 1   
    40    24    43 1   
    41    28    44 1   
    42    29    44 1   
    43    30    44 1   
    44    33    40 1   
    45    34    40 1   
    46    35    40 1   
@<TRIPOS>SUBSTRUCTURE
     1 05G         1 TEMP              0 ****  ****    0 ROOT
