@<TRIPOS>MOLECULE
05G
   44    46     1     0     0
SMALL
bcc


@<TRIPOS>ATOM
      1 C13         -5.6550   -11.5860    47.6910 ca         1 05G      -0.116000
      2 C12         -4.4090   -12.2100    47.9470 ca         1 05G      -0.045000
      3 C11         -3.7680   -12.0580    49.1390 ca         1 05G      -0.214000
      4 C10         -4.3350   -11.2660    50.1640 ca         1 05G       0.198100
      5 C02         -7.9940    -7.3560    53.6630 ca         1 05G      -0.022300
      6 C03         -7.4370    -8.2070    52.7230 ca         1 05G      -0.112000
      7 C04         -6.2040    -8.8300    52.9110 ca         1 05G       0.080400
      8 C05         -5.4970    -8.6100    54.1030 ca         1 05G       0.129100
      9 C06         -6.0380    -7.7500    55.0530 ca         1 05G      -0.150000
     10 C07         -7.2580    -7.1300    54.8380 ca         1 05G      -0.170500
     11 C09         -5.5690   -10.6330    49.9550 ca         1 05G      -0.048600
     12 C14         -6.2450   -10.7950    48.7040 ca         1 05G       0.065000
     13 C15         -7.4900   -10.1840    48.4280 ca         1 05G      -0.163000
     14 C16         -8.1000   -10.3500    47.2150 ca         1 05G      -0.019000
     15 C17         -7.5020   -11.1310    46.2060 ca         1 05G      -0.237500
     16 C18         -6.3020   -11.7400    46.4460 ca         1 05G      -0.024000
     17 N01         -5.5960    -9.6650    51.9740 ne         1 05G      -0.281400
     18 N02         -6.1900    -9.8250    50.8860 nf         1 05G      -0.171400
     19 O04         -4.3270    -9.2460    54.2470 os         1 05G      -0.319900
     20 O05         -8.4210    -9.9090    44.1160 o          1 05G      -0.698533
     21 O06         -7.4890   -12.1670    43.8070 o          1 05G      -0.698533
     22 O07         -9.6520   -11.8640    44.9550 o          1 05G      -0.698533
     23 O08         -3.6540   -11.1540    51.2920 oh         1 05G      -0.524100
     24 S01         -7.8490    -5.9900    56.1040 s6         1 05G       1.263100
     25 S02         -8.3360   -11.2870    44.6280 s6         1 05G       1.268100
     26 H1          -3.9590   -12.8160    47.1700 ha         1 05G       0.123000
     27 H2          -2.8150   -12.5360    49.3230 ha         1 05G       0.129000
     28 H3         -10.0560    -6.9650    54.1540 hc         1 05G       0.051700
     29 H4          -9.2520    -5.6360    53.3440 hc         1 05G       0.051700
     30 H5          -9.7190    -7.0670    52.4280 hc         1 05G       0.051700
     31 H6          -7.9720    -8.3970    51.8010 ha         1 05G       0.141000
     32 H7          -5.5110    -7.5470    55.9750 ha         1 05G       0.160000
     33 H8          -2.6590    -9.6060    55.3140 h1         1 05G       0.034367
     34 H9          -3.2810    -7.9570    55.5100 h1         1 05G       0.034367
     35 H10         -4.0920    -9.3190    56.3180 h1         1 05G       0.034367
     36 H11         -7.9660    -9.5770    49.1850 ha         1 05G       0.138000
     37 H12         -9.0520    -9.8670    47.0340 ha         1 05G       0.140000
     38 H13         -5.8260   -12.3460    45.6850 ha         1 05G       0.145000
     39 H14         -4.1750   -10.5590    51.8960 ho         1 05G       0.494000
     40 C08         -3.5620    -9.0090    55.4140 c3         1 05G       0.129700
     41 O01         -9.1370    -6.5350    56.5630 o          1 05G      -0.695867
     42 O02         -6.8140    -5.9940    57.1500 o          1 05G      -0.695867
     43 O03         -7.9680    -4.6960    55.4120 o          1 05G      -0.695867
     44 C01         -9.3260    -6.7220    53.3830 c3         1 05G      -0.059800
@<TRIPOS>BOND
     1     1     2 ar  
     2     1    12 ar  
     3     1    16 ar  
     4     2     3 ar  
     5     2    26 1   
     6     3     4 ar  
     7     3    27 1   
     8     4    11 ar  
     9     4    23 1   
    10     5     6 ar  
    11     5    10 ar  
    12     5    44 1   
    13     6     7 ar  
    14     6    31 1   
    15     7     8 ar  
    16     7    17 1   
    17     8     9 ar  
    18     8    19 1   
    19     9    10 ar  
    20     9    32 1   
    21    10    24 1   
    22    11    12 ar  
    23    11    18 1   
    24    12    13 ar  
    25    13    14 ar  
    26    13    36 1   
    27    14    15 ar  
    28    14    37 1   
    29    15    16 ar  
    30    15    25 1   
    31    16    38 1   
    32    17    18 2   
    33    19    40 1   
    34    20    25 1   
    35    21    25 1   
    36    22    25 1   
    37    23    39 1   
    38    24    41 1   
    39    24    42 1   
    40    24    43 1   
    41    28    44 1   
    42    29    44 1   
    43    30    44 1   
    44    33    40 1   
    45    34    40 1   
    46    35    40 1   
@<TRIPOS>SUBSTRUCTURE
     1 05G         1 TEMP              0 ****  ****    0 ROOT
