@<TRIPOS>MOLECULE
05I
   75    81     1     0     0
SMALL
No Charge or Current Charge


@<TRIPOS>ATOM
      1 C4          -3.0720   -12.2100    11.6720 ca         1 05I       0.168300
      2 C5          -2.9190   -12.9000    10.4550 ca         1 05I      -0.267300
      3 C6          -1.9630   -12.3950     9.5540 ca         1 05I       0.433900
      4 N1          -1.2450   -11.2980     9.8430 nb         1 05I      -0.352000
      5 N3          -2.3460   -11.1130    11.9570 nb         1 05I      -0.229000
      6 C2          -1.4600   -10.6980    11.0310 ca         1 05I       0.395300
      7 CAH         -3.7820   -14.1390    10.1680 c6         1 05I      -0.000100
      8 CAI         -5.0370   -14.2270    11.0740 c6         1 05I       0.183800
      9 CAK         -4.0860   -12.6520    12.7430 c6         1 05I       0.123500
     10 CAM          0.2870    -9.0600    10.4600 c3         1 05I       0.187600
     11 CAN         -1.4180   -12.2070     7.0760 c6         1 05I       0.188300
     12 CAO         -0.0290   -12.5200     6.4040 c5         1 05I       0.127000
     13 CAQ          0.2400   -14.5120     7.5210 c5         1 05I       0.127000
     14 CAR         -1.1270   -14.4010     8.2900 c6         1 05I       0.188300
     15 CAS         -5.5200   -14.5470    13.5090 ca         1 05I       0.270000
     16 CAT         -6.8340   -14.0410    13.5610 ca         1 05I      -0.157000
     17 CAU         -7.7480   -14.4810    14.5240 ca         1 05I      -0.095000
     18 CAV         -7.3530   -15.4390    15.4590 ca         1 05I      -0.110000
     19 CAW         -6.0490   -15.9640    15.4350 ca         1 05I      -0.029000
     20 CAX         -5.0980   -15.5380    14.4600 ca         1 05I      -0.019000
     21 CAY         -5.7160   -16.9230    16.4070 ca         1 05I      -0.113000
     22 CAZ         -4.4380   -17.4850    16.4370 ca         1 05I      -0.096000
     23 CBA         -3.4880   -17.0930    15.4890 ca         1 05I      -0.128000
     24 CBB         -3.7900   -16.1340    14.4980 ca         1 05I      -0.038300
     25 CBC         -2.6610   -15.8200    13.5130 c3         1 05I      -0.037800
     26 CBD          0.9500    -7.7880    11.0790 c5         1 05I       0.179500
     27 CBF          0.9820    -5.6900    12.0790 c5         1 05I       0.173800
     28 CBG          1.8260    -6.5910    13.0250 c5         1 05I      -0.082400
     29 CBH          1.6490    -8.0300    12.4460 c5         1 05I      -0.079400
     30 CBJ          1.3650   -13.6050     8.1070 c5         1 05I      -0.069400
     31 CBK          1.1980   -12.2580     7.3260 c5         1 05I      -0.069400
     32 NAG         -1.6880   -13.0120     8.3170 nh         1 05I      -0.789300
     33 NAJ         -4.6910   -13.9980    12.5030 nh         1 05I      -0.782400
     34 NAP          0.0990   -13.9770     6.1410 n7         1 05I      -0.837400
     35 NBE          0.0560    -6.6550    11.4460 n3         1 05I      -0.727600
     36 OAL         -0.7300    -9.5760    11.3520 os         1 05I      -0.421300
     37 H1          -4.1020   -14.1480     9.1170 hc         1 05I       0.049200
     38 H2          -3.1750   -15.0420    10.3130 hc         1 05I       0.049200
     39 H3          -5.7680   -13.4740    10.7440 h1         1 05I       0.040200
     40 H4          -5.5010   -15.2150    10.9450 h1         1 05I       0.040200
     41 H5          -3.5780   -12.6450    13.7190 h1         1 05I       0.068700
     42 H6          -4.8790   -11.8900    12.7920 h1         1 05I       0.068700
     43 H7          -0.1490    -8.7960     9.4870 h1         1 05I       0.044700
     44 H8           1.0670    -9.8130    10.2880 h1         1 05I       0.044700
     45 H9          -1.4670   -11.1290     7.2880 h1         1 05I       0.060450
     46 H10         -2.2140   -12.4010     6.3430 h1         1 05I       0.060450
     47 H11          0.0360   -11.9310     5.4770 h1         1 05I       0.076200
     48 H12          0.5410   -15.5700     7.5190 h1         1 05I       0.076200
     49 H13         -1.8560   -15.0840     7.8300 h1         1 05I       0.060450
     50 H14         -0.9700   -14.7620     9.3170 h1         1 05I       0.060450
     51 H15         -7.1490   -13.2870    12.8450 ha         1 05I       0.112000
     52 H16         -8.7570   -14.0760    14.5470 ha         1 05I       0.113000
     53 H17         -8.0670   -15.7740    16.2090 ha         1 05I       0.113000
     54 H18         -6.4510   -17.2360    17.1460 ha         1 05I       0.112000
     55 H19         -4.1850   -18.2270    17.1910 ha         1 05I       0.113000
     56 H20         -2.5010   -17.5490    15.5270 ha         1 05I       0.109000
     57 H21         -2.3490   -14.7730    13.5780 hc         1 05I       0.044367
     58 H22         -1.7660   -16.4230    13.7060 hc         1 05I       0.044367
     59 H23         -2.9630   -16.0390    12.4830 hc         1 05I       0.044367
     60 H24          1.6960    -7.4450    10.3470 h1         1 05I       0.035700
     61 H25          1.6240    -5.2090    11.3270 h1         1 05I       0.033200
     62 H26          0.4510    -4.8990    12.6260 h1         1 05I       0.033200
     63 H27          1.4600    -6.5360    14.0560 hc         1 05I       0.058200
     64 H28          2.8750    -6.2750    13.0380 hc         1 05I       0.058200
     65 H29          1.0260    -8.6370    13.1140 hc         1 05I       0.047200
     66 H30          2.6040    -8.5550    12.3320 hc         1 05I       0.047200
     67 H31         -1.3610    -5.2460    10.7150 h1         1 05I       0.027700
     68 H32         -0.1330    -5.7440     9.5260 h1         1 05I       0.027700
     69 H33         -1.4600    -6.8500     9.9610 h1         1 05I       0.027700
     70 H34          1.2660   -13.4740     9.1910 hc         1 05I       0.052700
     71 H35          2.3550   -14.0390     7.9260 hc         1 05I       0.052700
     72 H36          2.0930   -12.0410     6.7320 hc         1 05I       0.052700
     73 H37          1.0430   -11.4020     7.9920 hc         1 05I       0.052700
     74 H38         -0.7680   -14.3310     5.7180 hn         1 05I       0.407000
     75 CBI         -0.7660    -6.0950    10.3520 c3         1 05I       0.164100
@<TRIPOS>BOND
     1     1     2 ar  
     2     1     5 ar  
     3     1     9 1   
     4     2     3 ar  
     5     2     7 1   
     6     3     4 ar  
     7     3    32 1   
     8     4     6 ar  
     9     5     6 ar  
    10     6    36 1   
    11     7     8 1   
    12     7    37 1   
    13     7    38 1   
    14     8    33 1   
    15     8    39 1   
    16     8    40 1   
    17     9    33 1   
    18     9    41 1   
    19     9    42 1   
    20    10    26 1   
    21    10    36 1   
    22    10    43 1   
    23    10    44 1   
    24    11    12 1   
    25    11    32 1   
    26    11    45 1   
    27    11    46 1   
    28    12    31 1   
    29    12    34 1   
    30    12    47 1   
    31    13    14 1   
    32    13    30 1   
    33    13    34 1   
    34    13    48 1   
    35    14    32 1   
    36    14    49 1   
    37    14    50 1   
    38    15    16 ar  
    39    15    20 ar  
    40    15    33 1   
    41    16    17 ar  
    42    16    51 1   
    43    17    18 ar  
    44    17    52 1   
    45    18    19 ar  
    46    18    53 1   
    47    19    20 ar  
    48    19    21 ar  
    49    20    24 ar  
    50    21    22 ar  
    51    21    54 1   
    52    22    23 ar  
    53    22    55 1   
    54    23    24 ar  
    55    23    56 1   
    56    24    25 1   
    57    25    57 1   
    58    25    58 1   
    59    25    59 1   
    60    26    29 1   
    61    26    35 1   
    62    26    60 1   
    63    27    28 1   
    64    27    35 1   
    65    27    61 1   
    66    27    62 1   
    67    28    29 1   
    68    28    63 1   
    69    28    64 1   
    70    29    65 1   
    71    29    66 1   
    72    30    31 1   
    73    30    70 1   
    74    30    71 1   
    75    31    72 1   
    76    31    73 1   
    77    34    74 1   
    78    35    75 1   
    79    67    75 1   
    80    68    75 1   
    81    69    75 1   
@<TRIPOS>SUBSTRUCTURE
     1 05I         1 TEMP              0 ****  ****    0 ROOT
