@<TRIPOS>MOLECULE
05I
   75    81     1     0     0
SMALL
abcg2


@<TRIPOS>ATOM
      1 C4          -2.9130   -12.3130    11.5250 ca         1 05I       0.168300
      2 C5          -2.8530   -12.9390    10.2930 ca         1 05I      -0.267300
      3 C6          -1.9480   -12.3560     9.3650 ca         1 05I       0.433900
      4 N1          -1.3080   -11.2250     9.6760 nb         1 05I      -0.352000
      5 N3          -2.2130   -11.2230    11.8510 nb         1 05I      -0.229000
      6 C2          -1.4690   -10.7270    10.8820 ca         1 05I       0.395300
      7 CAH         -3.8310   -14.0370     9.9680 c6         1 05I      -0.000100
      8 CAI         -5.0050   -14.0270    10.9320 c6         1 05I       0.183800
      9 CAK         -3.8520   -12.7800    12.6000 c6         1 05I       0.123500
     10 CAM          0.0250    -8.9870    10.2590 c3         1 05I       0.187600
     11 CAN         -1.1260   -12.0470     7.0720 c6         1 05I       0.188300
     12 CAO          0.2290   -12.6040     6.6340 c5         1 05I       0.127000
     13 CAQ         -0.2820   -14.6910     7.3530 c5         1 05I       0.127000
     14 CAR         -1.6780   -14.2900     7.8450 c6         1 05I       0.188300
     15 CAS         -5.3100   -14.5170    13.3150 ca         1 05I       0.270000
     16 CAT         -6.6630   -14.2710    13.2750 ca         1 05I      -0.157000
     17 CAU         -7.5140   -14.6470    14.3270 ca         1 05I      -0.095000
     18 CAV         -6.9890   -15.2310    15.4420 ca         1 05I      -0.110000
     19 CAW         -5.6060   -15.5180    15.5210 ca         1 05I      -0.029000
     20 CAX         -4.7360   -15.2150    14.4290 ca         1 05I      -0.019000
     21 CAY         -5.1020   -16.1320    16.6910 ca         1 05I      -0.113000
     22 CAZ         -3.7850   -16.4730    16.7760 ca         1 05I      -0.096000
     23 CBA         -2.9420   -16.2510    15.6730 ca         1 05I      -0.128000
     24 CBB         -3.3720   -15.6550    14.5090 ca         1 05I      -0.038300
     25 CBC         -2.3710   -15.5930    13.3830 c3         1 05I      -0.037800
     26 CBD          0.7560    -7.8540    10.9530 c5         1 05I       0.179500
     27 CBF          0.3180    -6.3530    12.7180 c5         1 05I       0.173800
     28 CBG          0.8740    -7.6070    13.3680 c5         1 05I      -0.082400
     29 CBH          1.5680    -8.2920    12.1900 c5         1 05I      -0.079400
     30 CBJ          0.8010   -14.2230     8.3360 c5         1 05I      -0.069400
     31 CBK          1.1630   -12.8070     7.8340 c5         1 05I      -0.069400
     32 NAG         -1.7200   -12.8620     8.1240 nh         1 05I      -0.789300
     33 NAJ         -4.4750   -14.0460    12.2820 nh         1 05I      -0.782400
     34 NAP          0.0940   -13.9730     6.1400 n7         1 05I      -0.837400
     35 NBE         -0.1710    -6.8380    11.4430 n3         1 05I      -0.727600
     36 OAL         -0.8230    -9.6130    11.2120 os         1 05I      -0.421300
     37 H1          -4.1990   -13.9180     8.9460 hc         1 05I       0.049200
     38 H2          -3.3700   -15.0270    10.0220 hc         1 05I       0.049200
     39 H3          -5.6470   -13.1520    10.7420 h1         1 05I       0.040200
     40 H4          -5.6150   -14.9160    10.7730 h1         1 05I       0.040200
     41 H5          -3.2990   -12.8510    13.5400 h1         1 05I       0.068700
     42 H6          -4.6050   -11.9870    12.7500 h1         1 05I       0.068700
     43 H7          -0.5650    -8.6110     9.4170 h1         1 05I       0.044700
     44 H8           0.7490    -9.6990     9.8530 h1         1 05I       0.044700
     45 H9          -1.0360   -11.0210     7.4160 h1         1 05I       0.060450
     46 H10         -1.8050   -12.0500     6.2100 h1         1 05I       0.060450
     47 H11          0.6530   -11.9500     5.8680 h1         1 05I       0.076200
     48 H12         -0.2710   -15.7710     7.1890 h1         1 05I       0.076200
     49 H13         -2.4270   -14.5560     7.0900 h1         1 05I       0.060450
     50 H14         -1.8990   -14.8550     8.7450 h1         1 05I       0.060450
     51 H15         -7.0840   -13.7450    12.4270 ha         1 05I       0.112000
     52 H16         -8.5740   -14.4380    14.2590 ha         1 05I       0.113000
     53 H17         -7.6230   -15.4930    16.2800 ha         1 05I       0.113000
     54 H18         -5.7820   -16.3300    17.5100 ha         1 05I       0.112000
     55 H19         -3.3900   -16.9400    17.6680 ha         1 05I       0.113000
     56 H20         -1.9140   -16.5870    15.7340 ha         1 05I       0.109000
     57 H21         -2.0110   -14.5850    13.1780 hc         1 05I       0.044367
     58 H22         -1.5010   -16.1920    13.6510 hc         1 05I       0.044367
     59 H23         -2.7730   -15.9830    12.4510 hc         1 05I       0.044367
     60 H24          1.4420    -7.4340    10.2000 h1         1 05I       0.035700
     61 H25          1.1170    -5.6000    12.6010 h1         1 05I       0.033200
     62 H26         -0.4860    -5.8860    13.2910 h1         1 05I       0.033200
     63 H27          0.0590    -8.2240    13.7500 hc         1 05I       0.058200
     64 H28          1.5510    -7.3930    14.1950 hc         1 05I       0.058200
     65 H29          1.6250    -9.3750    12.3010 hc         1 05I       0.047200
     66 H30          2.5920    -7.9270    12.1000 hc         1 05I       0.047200
     67 H31         -1.2410    -5.1330    10.9030 h1         1 05I       0.027700
     68 H32          0.3900    -5.1910    10.2140 h1         1 05I       0.027700
     69 H33         -0.8920    -6.2310     9.5750 h1         1 05I       0.027700
     70 H34          0.4480   -14.2290     9.3680 hc         1 05I       0.052700
     71 H35          1.6640   -14.8880     8.2890 hc         1 05I       0.052700
     72 H36          2.2030   -12.7620     7.5120 hc         1 05I       0.052700
     73 H37          1.0200   -12.0380     8.5920 hc         1 05I       0.052700
     74 H38         -0.6240   -14.0450     5.4260 hn         1 05I       0.407000
     75 CBI         -0.4840    -5.8030    10.4920 c3         1 05I       0.164100
@<TRIPOS>BOND
     1     1     2 ar  
     2     1     5 ar  
     3     1     9 1   
     4     2     3 ar  
     5     2     7 1   
     6     3     4 ar  
     7     3    32 1   
     8     4     6 ar  
     9     5     6 ar  
    10     6    36 1   
    11     7     8 1   
    12     7    37 1   
    13     7    38 1   
    14     8    33 1   
    15     8    39 1   
    16     8    40 1   
    17     9    33 1   
    18     9    41 1   
    19     9    42 1   
    20    10    26 1   
    21    10    36 1   
    22    10    43 1   
    23    10    44 1   
    24    11    12 1   
    25    11    32 1   
    26    11    45 1   
    27    11    46 1   
    28    12    31 1   
    29    12    34 1   
    30    12    47 1   
    31    13    14 1   
    32    13    30 1   
    33    13    34 1   
    34    13    48 1   
    35    14    32 1   
    36    14    49 1   
    37    14    50 1   
    38    15    16 ar  
    39    15    20 ar  
    40    15    33 1   
    41    16    17 ar  
    42    16    51 1   
    43    17    18 ar  
    44    17    52 1   
    45    18    19 ar  
    46    18    53 1   
    47    19    20 ar  
    48    19    21 ar  
    49    20    24 ar  
    50    21    22 ar  
    51    21    54 1   
    52    22    23 ar  
    53    22    55 1   
    54    23    24 ar  
    55    23    56 1   
    56    24    25 1   
    57    25    57 1   
    58    25    58 1   
    59    25    59 1   
    60    26    29 1   
    61    26    35 1   
    62    26    60 1   
    63    27    28 1   
    64    27    35 1   
    65    27    61 1   
    66    27    62 1   
    67    28    29 1   
    68    28    63 1   
    69    28    64 1   
    70    29    65 1   
    71    29    66 1   
    72    30    31 1   
    73    30    70 1   
    74    30    71 1   
    75    31    72 1   
    76    31    73 1   
    77    34    74 1   
    78    35    75 1   
    79    67    75 1   
    80    68    75 1   
    81    69    75 1   
@<TRIPOS>SUBSTRUCTURE
     1 05I         1 TEMP              0 ****  ****    0 ROOT
