@<TRIPOS>MOLECULE
05L
   45    45     1     0     0
SMALL
No Charge or Current Charge


@<TRIPOS>ATOM
      1 SE          -0.0560    -1.3740     0.3580 ss         1 05L      -0.541000
      2 C1          -1.5670    -0.5300    -0.2960 c6         1 05L       0.335300
      3 C2          -2.8770    -1.3170     0.0370 c6         1 05L       0.118300
      4 O2          -2.8740    -2.6530    -0.5210 oh         1 05L      -0.725000
      5 C3          -4.0940    -0.5100    -0.4960 c6         1 05L       0.136300
      6 O3          -5.3220    -1.1860    -0.1710 oh         1 05L      -0.665000
      7 C4          -4.0840     0.9330     0.0900 c6         1 05L       0.145300
      8 O4          -5.1950     1.6790    -0.4430 oh         1 05L      -0.718000
      9 C5          -2.7110     1.6090    -0.2240 c6         1 05L       0.162300
     10 O5          -1.6300     0.7850     0.2870 os         1 05L      -0.421000
     11 C6          -2.5860     3.0330     0.4110 c3         1 05L       0.172600
     12 O6          -1.3040     3.6520     0.1750 oh         1 05L      -0.712000
     13 C8           1.2370    -0.1660    -0.1880 c3         1 05L       0.144600
     14 C9           2.6420    -0.6850     0.1750 c3         1 05L      -0.075400
     15 C10          3.7700     0.2780    -0.2550 c3         1 05L      -0.075400
     16 C11          5.1790    -0.2400     0.1080 c3         1 05L      -0.074400
     17 C12          6.3060     0.7230    -0.3220 c3         1 05L      -0.075400
     18 C13          7.7150     0.2050     0.0410 c3         1 05L      -0.074400
     19 C7           8.8410     1.1660    -0.3890 c3         1 05L      -0.088100
     20 H1          -1.4460    -0.4480    -1.3870 h2         1 05L       0.059700
     21 H2          -2.9550    -1.3740     1.1340 h1         1 05L       0.067700
     22 HO2         -2.0120    -3.0610    -0.2620 ho         1 05L       0.528000
     23 H3          -3.9940    -0.4360    -1.5900 h1         1 05L       0.052700
     24 HO3         -5.1210    -2.1430    -0.2960 ho         1 05L       0.466000
     25 H4          -4.1820     0.8580     1.1840 h1         1 05L       0.056700
     26 HO4         -5.9450     1.0360    -0.4600 ho         1 05L       0.526000
     27 H5          -2.5950     1.7100    -1.3130 h1         1 05L       0.060700
     28 H6          -3.3860     3.6640    -0.0010 h1         1 05L       0.037200
     29 H6A         -2.7680     2.9420     1.4900 h1         1 05L       0.037200
     30 HO6         -1.3060     4.5110     0.6590 ho         1 05L       0.505000
     31 H8           1.1640    -0.0230    -1.2750 h1         1 05L       0.062200
     32 H1'A         1.0610     0.8010     0.3010 h1         1 05L       0.062200
     33 H9           2.6940    -0.8440     1.2590 hc         1 05L       0.053700
     34 H2'A         2.7960    -1.6610    -0.3020 hc         1 05L       0.053700
     35 H10          3.7130     0.4380    -1.3400 hc         1 05L       0.039700
     36 H3'A         3.6110     1.2540     0.2210 hc         1 05L       0.039700
     37 H11          5.2350    -0.3990     1.1920 hc         1 05L       0.039200
     38 H4'A         5.3370    -1.2160    -0.3680 hc         1 05L       0.039200
     39 H12          6.2500     0.8820    -1.4070 hc         1 05L       0.037200
     40 H5'A         6.1480     1.6990     0.1530 hc         1 05L       0.037200
     41 H13          7.7760     0.0470     1.1250 hc         1 05L       0.037200
     42 H6'A         7.8780    -0.7700    -0.4350 hc         1 05L       0.037200
     43 H7           9.8190     0.7570    -0.1100 hc         1 05L       0.031700
     44 H7'A         8.8290     1.3170    -1.4750 hc         1 05L       0.031700
     45 H7'B         8.7260     2.1410     0.0990 hc         1 05L       0.031700
@<TRIPOS>BOND
     1     1     2 1   
     2     1    13 1   
     3     2     3 1   
     4     2    10 1   
     5     2    20 1   
     6     3     4 1   
     7     3     5 1   
     8     3    21 1   
     9     4    22 1   
    10     5     6 1   
    11     5     7 1   
    12     5    23 1   
    13     6    24 1   
    14     7     8 1   
    15     7     9 1   
    16     7    25 1   
    17     8    26 1   
    18     9    10 1   
    19     9    11 1   
    20     9    27 1   
    21    11    12 1   
    22    11    28 1   
    23    11    29 1   
    24    12    30 1   
    25    13    14 1   
    26    13    31 1   
    27    13    32 1   
    28    14    15 1   
    29    14    33 1   
    30    14    34 1   
    31    15    16 1   
    32    15    35 1   
    33    15    36 1   
    34    16    17 1   
    35    16    37 1   
    36    16    38 1   
    37    17    18 1   
    38    17    39 1   
    39    17    40 1   
    40    18    19 1   
    41    18    41 1   
    42    18    42 1   
    43    19    43 1   
    44    19    44 1   
    45    19    45 1   
@<TRIPOS>SUBSTRUCTURE
     1 05L         1 TEMP              0 ****  ****    0 ROOT
