@<TRIPOS>MOLECULE
05L
   45    45     1     0     0
SMALL
bcc


@<TRIPOS>ATOM
      1 SE          -0.0180    -0.8460     1.0730 ss         1 05L      -0.445200
      2 C1          -1.5290    -0.1170     0.0730 c6         1 05L       0.264200
      3 C2          -2.6510    -1.1530    -0.0460 c6         1 05L       0.095100
      4 O2          -2.2690    -2.2690    -0.8050 oh         1 05L      -0.602800
      5 C3          -3.8250    -0.5040    -0.7740 c6         1 05L       0.113100
      6 O3          -4.9580    -1.3380    -0.7960 oh         1 05L      -0.602800
      7 C4          -4.2330     0.8010    -0.1010 c6         1 05L       0.122100
      8 O4          -5.2020     1.4830    -0.8560 oh         1 05L      -0.595800
      9 C5          -3.0130     1.7100     0.0390 c6         1 05L       0.139100
     10 O5          -1.9880     1.0270     0.7390 os         1 05L      -0.374600
     11 C6          -3.3330     2.9710     0.8140 c3         1 05L       0.149400
     12 O6          -2.1970     3.8010     0.8260 oh         1 05L      -0.589800
     13 C8           1.4220     0.0540     0.0860 c3         1 05L       0.096700
     14 C9           2.7850    -0.4400     0.5450 c3         1 05L      -0.075400
     15 C10          3.9120     0.2550    -0.2130 c3         1 05L      -0.075400
     16 C11          5.2940    -0.2170     0.2190 c3         1 05L      -0.074400
     17 C12          6.4230     0.4750    -0.5330 c3         1 05L      -0.075400
     18 C13          7.8090     0.0080    -0.1040 c3         1 05L      -0.074400
     19 C7           8.9290     0.7100    -0.8600 c3         1 05L      -0.088100
     20 H1          -1.1580     0.1330    -0.9340 h2         1 05L       0.059700
     21 H2          -2.9820    -1.4400     0.9640 h1         1 05L       0.067700
     22 HO2         -1.6440    -2.7980    -0.2970 ho         1 05L       0.429000
     23 H3          -3.4930    -0.2680    -1.7980 h1         1 05L       0.052700
     24 HO3         -4.7720    -2.0930    -1.3630 ho         1 05L       0.427000
     25 H4          -4.6090     0.5680     0.9080 h1         1 05L       0.056700
     26 HO4         -5.9660     0.9050    -0.9550 ho         1 05L       0.427000
     27 H5          -2.6610     1.9830    -0.9690 h1         1 05L       0.060700
     28 H6          -4.1880     3.4610     0.3380 h1         1 05L       0.037200
     29 H6A         -3.6460     2.6910     1.8300 h1         1 05L       0.037200
     30 HO6         -2.4280     4.6110     1.2900 ho         1 05L       0.406000
     31 H8           1.2790    -0.1460    -0.9780 h1         1 05L       0.062200
     32 H1'A         1.3300     1.1300     0.2440 h1         1 05L       0.062200
     33 H9           2.9090    -0.2620     1.6170 hc         1 05L       0.053700
     34 H2'A         2.8620    -1.5210     0.3950 hc         1 05L       0.053700
     35 H10          3.7880     0.0820    -1.2880 hc         1 05L       0.039700
     36 H3'A         3.8340     1.3370    -0.0670 hc         1 05L       0.039700
     37 H11          5.4150    -0.0470     1.2940 hc         1 05L       0.039200
     38 H4'A         5.3700    -1.3010     0.0730 hc         1 05L       0.039200
     39 H12          6.3020     0.3060    -1.6090 hc         1 05L       0.037200
     40 H5'A         6.3450     1.5580    -0.3880 hc         1 05L       0.037200
     41 H13          7.9290     0.1750     0.9710 hc         1 05L       0.037200
     42 H6'A         7.8880    -1.0730    -0.2530 hc         1 05L       0.037200
     43 H7           9.9110     0.3610    -0.5380 hc         1 05L       0.031700
     44 H7'A         8.8510     0.5310    -1.9340 hc         1 05L       0.031700
     45 H7'B         8.8930     1.7900    -0.7040 hc         1 05L       0.031700
@<TRIPOS>BOND
     1     1     2 1   
     2     1    13 1   
     3     2     3 1   
     4     2    10 1   
     5     2    20 1   
     6     3     4 1   
     7     3     5 1   
     8     3    21 1   
     9     4    22 1   
    10     5     6 1   
    11     5     7 1   
    12     5    23 1   
    13     6    24 1   
    14     7     8 1   
    15     7     9 1   
    16     7    25 1   
    17     8    26 1   
    18     9    10 1   
    19     9    11 1   
    20     9    27 1   
    21    11    12 1   
    22    11    28 1   
    23    11    29 1   
    24    12    30 1   
    25    13    14 1   
    26    13    31 1   
    27    13    32 1   
    28    14    15 1   
    29    14    33 1   
    30    14    34 1   
    31    15    16 1   
    32    15    35 1   
    33    15    36 1   
    34    16    17 1   
    35    16    37 1   
    36    16    38 1   
    37    17    18 1   
    38    17    39 1   
    39    17    40 1   
    40    18    19 1   
    41    18    41 1   
    42    18    42 1   
    43    19    43 1   
    44    19    44 1   
    45    19    45 1   
@<TRIPOS>SUBSTRUCTURE
     1 05L         1 TEMP              0 ****  ****    0 ROOT
