@<TRIPOS>MOLECULE
05N
   20    20     1     0     0
SMALL
No Charge or Current Charge


@<TRIPOS>ATOM
      1 N3           0.1580     1.5720    -0.4300 n7         1 05N      -0.836400
      2 C19         -0.5540     0.2400    -0.3200 c5         1 05N       0.034500
      3 C20          0.5060    -0.7920     0.2300 c5         1 05N      -0.032700
      4 C21          1.6440     0.1520     0.7390 c5         1 05N       0.148300
      5 C22         -1.8680     0.2190     0.5810 c          1 05N       0.727000
      6 O9           2.9210    -0.4900     0.8490 oh         1 05N      -0.662000
      7 C52          1.5980     1.2540    -0.3580 c5         1 05N       0.114800
      8 C53          0.9230    -1.8390    -0.8400 c3         1 05N      -0.069100
      9 H15         -0.8580    -0.0680    -1.3310 h1         1 05N       0.003700
     10 H16          0.1050    -1.3760     1.0660 hc         1 05N       0.064700
     11 H17          1.3650     0.5850     1.7110 h1         1 05N       0.026700
     12 H40          3.5590     0.2010     1.1300 ho         1 05N       0.418000
     13 H41          1.9610     0.8780    -1.3250 h1         1 05N       0.010700
     14 H42          2.1870     2.1410    -0.0890 h1         1 05N       0.010700
     15 H43          1.3700    -1.3640    -1.7220 hc         1 05N       0.027700
     16 H44          1.6510    -2.5530    -0.4370 hc         1 05N       0.027700
     17 H45          0.0540    -2.4150    -1.1790 hc         1 05N       0.027700
     18 H2          -0.0740     2.0460    -1.3130 hn         1 05N       0.417000
     19 O2          -1.7820     0.3540     1.7970 o          1 05N      -0.729500
     20 O3          -2.9550     0.0800     0.0330 o          1 05N      -0.729500
@<TRIPOS>BOND
     1     1     2 1   
     2     1     7 1   
     3     1    18 1   
     4     2     3 1   
     5     2     5 1   
     6     2     9 1   
     7     3     4 1   
     8     3     8 1   
     9     3    10 1   
    10     4     6 1   
    11     4     7 1   
    12     4    11 1   
    13     5    19 1   
    14     5    20 1   
    15     6    12 1   
    16     7    13 1   
    17     7    14 1   
    18     8    15 1   
    19     8    16 1   
    20     8    17 1   
@<TRIPOS>SUBSTRUCTURE
     1 05N         1 TEMP              0 ****  ****    0 ROOT
