@<TRIPOS>MOLECULE
05N
   20    20     1     0     0
SMALL
abcg2


@<TRIPOS>ATOM
      1 N3           0.0640     1.5580    -0.1840 n7         1 05N      -0.836400
      2 C19         -0.4470     0.2080    -0.3570 c5         1 05N       0.034500
      3 C20          0.5650    -0.6590     0.4230 c5         1 05N      -0.032700
      4 C21          1.8200     0.2480     0.5340 c5         1 05N       0.148300
      5 C22         -1.9150     0.0420     0.0570 c          1 05N       0.727000
      6 O9           3.0010    -0.4380     0.1890 oh         1 05N      -0.662000
      7 C52          1.4910     1.4320    -0.3780 c5         1 05N       0.114800
      8 C53          0.8090    -2.0060    -0.2380 c3         1 05N      -0.069100
      9 H15         -0.3840    -0.1040    -1.4180 h1         1 05N       0.003700
     10 H16          0.1790    -0.8440     1.4290 hc         1 05N       0.064700
     11 H17          1.8910     0.6210     1.5630 h1         1 05N       0.026700
     12 H40          3.7410     0.1530     0.3530 ho         1 05N       0.418000
     13 H41          1.7780     1.1780    -1.4120 h1         1 05N       0.010700
     14 H42          2.0220     2.3460    -0.0980 h1         1 05N       0.010700
     15 H43          1.2080    -1.8980    -1.2490 hc         1 05N       0.027700
     16 H44          1.5030    -2.6240     0.3320 hc         1 05N       0.027700
     17 H45         -0.1360    -2.5420    -0.3110 hc         1 05N       0.027700
     18 H2          -0.3640     2.2100    -0.8260 hn         1 05N       0.417000
     19 O2          -2.3250    -1.1330     0.1670 o          1 05N      -0.729500
     20 O3          -2.5880     1.0780     0.2160 o          1 05N      -0.729500
@<TRIPOS>BOND
     1     1     2 1   
     2     1     7 1   
     3     1    18 1   
     4     2     3 1   
     5     2     5 1   
     6     2     9 1   
     7     3     4 1   
     8     3     8 1   
     9     3    10 1   
    10     4     6 1   
    11     4     7 1   
    12     4    11 1   
    13     5    19 1   
    14     5    20 1   
    15     6    12 1   
    16     7    13 1   
    17     7    14 1   
    18     8    15 1   
    19     8    16 1   
    20     8    17 1   
@<TRIPOS>SUBSTRUCTURE
     1 05N         1 TEMP              0 ****  ****    0 ROOT
