@<TRIPOS>MOLECULE
05R
   17    17     1     0     0
SMALL
bcc


@<TRIPOS>ATOM
      1 CBE          3.4610    -0.1370    -0.2960 c          1 05R       0.937600
      2 OBF          2.9030    -0.0670    -1.4030 o          1 05R      -0.825300
      3 CBG          2.5730     0.0210     0.9680 c3         1 05R      -0.199100
      4 CBH          1.1290     0.2620     0.6710 ca         1 05R       0.029700
      5 CBI          0.6280     1.5510     0.5130 ca         1 05R      -0.124000
      6 CBJ         -0.7080     1.7730     0.2220 ca         1 05R      -0.119000
      7 CBK         -1.5740     0.7000     0.0790 ca         1 05R      -0.004600
      8 CLL         -3.2370     0.9830    -0.2810 cl         1 05R      -0.135400
      9 CBM         -1.0890    -0.5930     0.2350 ca         1 05R       0.033400
     10 CLN         -2.1420    -1.9500     0.0700 cl         1 05R      -0.130400
     11 CBO          0.2500    -0.8050     0.5270 ca         1 05R      -0.118000
     12 HBG          2.6860    -0.8780     1.5800 hc         1 05R       0.036200
     13 HBGA         2.9750     0.8430     1.5670 hc         1 05R       0.036200
     14 HBI          1.2890     2.4020     0.6240 ha         1 05R       0.134000
     15 HBJ         -1.0830     2.7810     0.1070 ha         1 05R       0.128000
     16 HBO          0.6060    -1.8200     0.6510 ha         1 05R       0.146000
     17 OXT          4.6710    -0.3240    -0.0680 o          1 05R      -0.825300
@<TRIPOS>BOND
     1     1     2 1   
     2     1     3 1   
     3     1    17 1   
     4     3     4 1   
     5     3    12 1   
     6     3    13 1   
     7     4     5 ar  
     8     4    11 ar  
     9     5     6 ar  
    10     5    14 1   
    11     6     7 ar  
    12     6    15 1   
    13     7     8 1   
    14     7     9 ar  
    15     9    10 1   
    16     9    11 ar  
    17    11    16 1   
@<TRIPOS>SUBSTRUCTURE
     1 05R         1 TEMP              0 ****  ****    0 ROOT
