@<TRIPOS>MOLECULE
05R
   17    17     1     0     0
SMALL
No Charge or Current Charge


@<TRIPOS>ATOM
      1 CBE          3.4040    -0.2170    -0.3000 c          1 05R       0.727000
      2 OBF          3.4140    -1.2680    -0.9220 o          1 05R      -0.720000
      3 CBG          2.5990    -0.1610     1.0050 c3         1 05R      -0.199100
      4 CBH          1.1510     0.1970     0.6880 ca         1 05R       0.029700
      5 CBI          0.7350     1.5430     0.6830 ca         1 05R      -0.106000
      6 CBJ         -0.6010     1.8740     0.3930 ca         1 05R      -0.101000
      7 CBK         -1.5310     0.8610     0.1050 ca         1 05R       0.087000
      8 ClL         -3.2000     1.3090    -0.2560 cl         1 05R      -0.227000
      9 CBM         -1.1210    -0.4890     0.1080 ca         1 05R       0.125000
     10 ClN         -2.2590    -1.7890    -0.2500 cl         1 05R      -0.222000
     11 CBO          0.2150    -0.8150     0.3990 ca         1 05R      -0.100000
     12 HBG          2.5900    -1.1460     1.4850 hc         1 05R       0.036200
     13 HBGA         2.9930     0.6270     1.6580 hc         1 05R       0.036200
     14 HBI          1.4470     2.3350     0.9020 ha         1 05R       0.116000
     15 HBJ         -0.9140     2.9150     0.3910 ha         1 05R       0.110000
     16 HBO          0.5240    -1.8570     0.3960 ha         1 05R       0.128000
     17 OXT          3.8920     0.8220    -0.7180 o          1 05R      -0.720000
@<TRIPOS>BOND
     1     1     2 1   
     2     1     3 1   
     3     1    17 1   
     4     3     4 1   
     5     3    12 1   
     6     3    13 1   
     7     4     5 ar  
     8     4    11 ar  
     9     5     6 ar  
    10     5    14 1   
    11     6     7 ar  
    12     6    15 1   
    13     7     8 1   
    14     7     9 ar  
    15     9    10 1   
    16     9    11 ar  
    17    11    16 1   
@<TRIPOS>SUBSTRUCTURE
     1 05R         1 TEMP              0 ****  ****    0 ROOT
