@<TRIPOS>MOLECULE
05S
   62    65     1     0     0
SMALL
No Charge or Current Charge


@<TRIPOS>ATOM
      1 C1          40.9280     9.3340    23.6470 c3         1 05S      -0.020800
      2 C2          39.7830    10.3140    23.6770 cc         1 05S      -0.057300
      3 C3          38.4560    10.0660    23.4050 cd         1 05S      -0.171300
      4 N1          37.8220    11.3110    23.5250 na         1 05S       0.105200
      5 C4          38.6650    12.2710    24.0690 cd         1 05S      -0.075300
      6 C5          39.8970    11.6760    24.0930 cc         1 05S      -0.255600
      7 C6          41.1030    12.3900    24.5860 c          1 05S       0.611700
      8 O1          42.2040    11.8720    24.7280 o          1 05S      -0.552100
      9 C7          40.8690    13.8690    24.9530 c6         1 05S      -0.171400
     10 C8          39.4580    14.1620    25.5560 c6         1 05S      -0.036000
     11 C9          38.3570    13.6680    24.5650 c6         1 05S      -0.014100
     12 C10         39.2970    15.6910    25.8050 c3         1 05S      -0.086600
     13 C11         39.3040    13.4520    26.9370 c3         1 05S      -0.086600
     14 C12         36.5070    11.2940    23.9950 ca         1 05S       0.070800
     15 C13         35.4690    11.8270    23.2190 ca         1 05S      -0.193000
     16 C14         34.1370    11.7240    23.6490 ca         1 05S      -0.020000
     17 C15         33.8130    11.0440    24.8500 ca         1 05S      -0.257600
     18 C16         34.8710    10.5020    25.6140 ca         1 05S       0.414000
     19 C17         36.1970    10.6740    25.2120 ca         1 05S      -0.228000
     20 N2          34.6310     9.7330    26.7410 nu         1 05S      -0.966200
     21 C18         35.2340     8.4070    27.0180 c3         1 05S       0.199500
     22 C19         34.7550     7.3070    26.0050 c3         1 05S       0.163800
     23 N3          35.2620     7.4780    24.6100 n7         1 05S      -0.916400
     24 C20         36.5270     6.7960    24.2420 c3         1 05S       0.184800
     25 C21         37.7330     7.7610    24.2480 c3         1 05S      -0.112400
     26 C22         37.7550     8.7650    23.0630 c3         1 05S      -0.004100
     27 C23         34.8830     8.0240    28.4680 c3         1 05S      -0.101100
     28 C24         32.3720    10.8990    25.2850 c          1 05S       0.626700
     29 O2          32.0320    10.4190    26.3550 o          1 05S      -0.647100
     30 N4          31.4080    11.3390    24.4530 nt         1 05S      -0.596000
     31 H1          41.7660     9.7270    23.0610 hc         1 05S       0.045033
     32 H2          41.2870     9.1220    24.6610 hc         1 05S       0.045033
     33 H3          40.6290     8.3830    23.1920 hc         1 05S       0.045033
     34 H4          41.6930    14.2320    25.5820 hc         1 05S       0.066700
     35 H5          40.9200    14.4140    24.0010 hc         1 05S       0.066700
     36 H6          38.3000    14.3470    23.7030 hc         1 05S       0.059200
     37 H7          37.3700    13.7090    25.0470 hc         1 05S       0.059200
     38 H8          38.3110    15.9280    26.2230 hc         1 05S       0.038533
     39 H9          40.0530    16.0650    26.5080 hc         1 05S       0.038533
     40 H10         39.4050    16.2620    24.8750 hc         1 05S       0.038533
     41 H11         38.3300    13.6710    27.3930 hc         1 05S       0.038533
     42 H12         39.3800    12.3620    26.8490 hc         1 05S       0.038533
     43 H13         40.0780    13.7770    27.6430 hc         1 05S       0.038533
     44 H14         35.6950    12.3150    22.2740 ha         1 05S       0.130000
     45 H15         33.3660    12.1620    23.0190 ha         1 05S       0.109000
     46 H16         36.9990    10.2860    25.8280 ha         1 05S       0.135000
     47 H17         33.6360     9.8010    26.9920 hn         1 05S       0.529000
     48 H18         36.3290     8.4710    26.9660 h1         1 05S       0.059700
     49 H19         33.6560     7.3330    25.9960 h1         1 05S       0.054700
     50 H20         35.0340     6.3170    26.3920 h1         1 05S       0.054700
     51 H21         35.3410     8.4820    24.4080 hn         1 05S       0.434000
     52 H23         36.4420     6.3690    23.2330 h1         1 05S       0.048700
     53 H24         36.7310     5.9570    24.9230 h1         1 05S       0.048700
     54 H25         38.6530     7.1660    24.2090 hc         1 05S       0.047200
     55 H26         37.7690     8.2910    25.2040 hc         1 05S       0.047200
     56 H27         36.7300     8.9670    22.7310 hc         1 05S       0.052700
     57 H28         38.2460     8.2900    22.2040 hc         1 05S       0.052700
     58 H29         35.2510     8.7830    29.1690 hc         1 05S       0.047700
     59 H30         33.7990     7.9270    28.5990 hc         1 05S       0.047700
     60 H31         35.3480     7.0670    28.7340 hc         1 05S       0.047700
     61 H32         30.4430    11.2520    24.7340 hn         1 05S       0.315500
     62 H33         31.6470    11.7360    23.5590 hn         1 05S       0.315500
@<TRIPOS>BOND
     1     1     2 1   
     2     1    31 1   
     3     1    32 1   
     4     1    33 1   
     5     2     3 2   
     6     2     6 1   
     7     3     4 1   
     8     3    26 1   
     9     4     5 1   
    10     4    14 1   
    11     5     6 2   
    12     5    11 1   
    13     6     7 1   
    14     7     8 2   
    15     7     9 1   
    16     9    10 1   
    17     9    34 1   
    18     9    35 1   
    19    10    11 1   
    20    10    12 1   
    21    10    13 1   
    22    11    36 1   
    23    11    37 1   
    24    12    38 1   
    25    12    39 1   
    26    12    40 1   
    27    13    41 1   
    28    13    42 1   
    29    13    43 1   
    30    14    15 ar  
    31    14    19 ar  
    32    15    16 ar  
    33    15    44 1   
    34    16    17 ar  
    35    16    45 1   
    36    17    18 ar  
    37    17    28 1   
    38    18    19 ar  
    39    18    20 1   
    40    19    46 1   
    41    20    21 1   
    42    20    47 1   
    43    21    22 1   
    44    21    27 1   
    45    21    48 1   
    46    22    23 1   
    47    22    49 1   
    48    22    50 1   
    49    23    24 1   
    50    23    51 1   
    51    24    25 1   
    52    24    52 1   
    53    24    53 1   
    54    25    26 1   
    55    25    54 1   
    56    25    55 1   
    57    26    56 1   
    58    26    57 1   
    59    27    58 1   
    60    27    59 1   
    61    27    60 1   
    62    28    29 2   
    63    28    30 1   
    64    30    61 1   
    65    30    62 1   
@<TRIPOS>SUBSTRUCTURE
     1 05S         1 TEMP              0 ****  ****    0 ROOT
