@<TRIPOS>MOLECULE
05S
   62    65     1     0     0
SMALL
abcg2


@<TRIPOS>ATOM
      1 C1          40.9500     9.4420    23.3050 c3         1 05S      -0.020800
      2 C2          39.8590    10.3730    23.7260 cc         1 05S      -0.057300
      3 C3          38.5290    10.0630    23.8340 cd         1 05S      -0.171300
      4 N1          37.8470    11.2360    24.2320 na         1 05S       0.105200
      5 C4          38.7320    12.2600    24.3670 cd         1 05S      -0.075300
      6 C5          39.9960    11.7670    24.0680 cc         1 05S      -0.255600
      7 C6          41.1580    12.6120    24.1830 c          1 05S       0.611700
      8 O1          42.3150    12.2260    23.9940 o          1 05S      -0.552100
      9 C7          40.8780    14.0660    24.5360 c6         1 05S      -0.171400
     10 C8          39.6580    14.3030    25.4490 c6         1 05S      -0.036000
     11 C9          38.4160    13.6430    24.8110 c6         1 05S      -0.014100
     12 C10         39.4110    15.8070    25.5850 c3         1 05S      -0.086600
     13 C11         39.9170    13.7050    26.8390 c3         1 05S      -0.086600
     14 C12         36.4520    11.2880    24.4970 ca         1 05S       0.070800
     15 C13         35.6150    12.1750    23.8180 ca         1 05S      -0.193000
     16 C14         34.2570    12.0910    24.0600 ca         1 05S      -0.020000
     17 C15         33.6900    11.1360    24.9160 ca         1 05S      -0.257600
     18 C16         34.5590    10.2370    25.6100 ca         1 05S       0.414000
     19 C17         35.9430    10.3880    25.4040 ca         1 05S      -0.228000
     20 N2          34.0970     9.2680    26.4390 nu         1 05S      -0.966200
     21 C18         34.8460     8.1170    26.9340 c3         1 05S       0.199500
     22 C19         34.7560     6.9140    25.9650 c3         1 05S       0.163800
     23 N3          35.3490     7.0110    24.6400 n7         1 05S      -0.916400
     24 C20         36.7530     6.6450    24.4590 c3         1 05S       0.184800
     25 C21         37.8240     7.7290    24.6550 c3         1 05S      -0.112400
     26 C22         37.8010     8.7900    23.5370 c3         1 05S      -0.004100
     27 C23         34.2860     7.7230    28.2990 c3         1 05S      -0.101100
     28 C24         32.2180    11.0390    25.0750 c          1 05S       0.626700
     29 O2          31.6920    10.3960    25.9990 o          1 05S      -0.647100
     30 N4          31.4390    11.6870    24.1790 nt         1 05S      -0.596000
     31 H1          41.5040     9.8390    22.4530 hc         1 05S       0.045033
     32 H2          41.6750     9.2890    24.1080 hc         1 05S       0.045033
     33 H3          40.5460     8.4680    23.0270 hc         1 05S       0.045033
     34 H4          41.7790    14.4850    24.9870 hc         1 05S       0.066700
     35 H5          40.7180    14.5920    23.5870 hc         1 05S       0.066700
     36 H6          38.0960    14.2420    23.9500 hc         1 05S       0.059200
     37 H7          37.5820    13.6440    25.5170 hc         1 05S       0.059200
     38 H8          38.5380    15.9980    26.2140 hc         1 05S       0.038533
     39 H9          40.2720    16.2990    26.0430 hc         1 05S       0.038533
     40 H10         39.2350    16.2640    24.6090 hc         1 05S       0.038533
     41 H11         39.0660    13.8950    27.4980 hc         1 05S       0.038533
     42 H12         40.0740    12.6260    26.7930 hc         1 05S       0.038533
     43 H13         40.8030    14.1580    27.2880 hc         1 05S       0.038533
     44 H14         36.0160    12.8880    23.1130 ha         1 05S       0.130000
     45 H15         33.6140    12.7970    23.5530 ha         1 05S       0.109000
     46 H16         36.6310     9.7620    25.9400 ha         1 05S       0.135000
     47 H17         33.0900     9.2480    26.5420 hn         1 05S       0.529000
     48 H18         35.8880     8.3990    27.0660 h1         1 05S       0.059700
     49 H19         33.6870     6.6940    25.8520 h1         1 05S       0.054700
     50 H20         35.2030     6.0500    26.4610 h1         1 05S       0.054700
     51 H21         35.0900     7.8600    24.1560 hn         1 05S       0.434000
     52 H23         36.8700     6.2450    23.4450 h1         1 05S       0.048700
     53 H24         36.9560     5.8170    25.1420 h1         1 05S       0.048700
     54 H25         38.8060     7.2470    24.6580 hc         1 05S       0.047200
     55 H26         37.7140     8.1920    25.6360 hc         1 05S       0.047200
     56 H27         36.7690     9.0330    23.2830 hc         1 05S       0.052700
     57 H28         38.2340     8.3430    22.6390 hc         1 05S       0.052700
     58 H29         34.3550     8.5580    28.9980 hc         1 05S       0.047700
     59 H30         33.2350     7.4330    28.2130 hc         1 05S       0.047700
     60 H31         34.8400     6.8780    28.7090 hc         1 05S       0.047700
     61 H32         30.4410    11.5820    24.2640 hn         1 05S       0.315500
     62 H33         31.7960    12.0780    23.3260 hn         1 05S       0.315500
@<TRIPOS>BOND
     1     1     2 1   
     2     1    31 1   
     3     1    32 1   
     4     1    33 1   
     5     2     3 2   
     6     2     6 1   
     7     3     4 1   
     8     3    26 1   
     9     4     5 1   
    10     4    14 1   
    11     5     6 2   
    12     5    11 1   
    13     6     7 1   
    14     7     8 2   
    15     7     9 1   
    16     9    10 1   
    17     9    34 1   
    18     9    35 1   
    19    10    11 1   
    20    10    12 1   
    21    10    13 1   
    22    11    36 1   
    23    11    37 1   
    24    12    38 1   
    25    12    39 1   
    26    12    40 1   
    27    13    41 1   
    28    13    42 1   
    29    13    43 1   
    30    14    15 ar  
    31    14    19 ar  
    32    15    16 ar  
    33    15    44 1   
    34    16    17 ar  
    35    16    45 1   
    36    17    18 ar  
    37    17    28 1   
    38    18    19 ar  
    39    18    20 1   
    40    19    46 1   
    41    20    21 1   
    42    20    47 1   
    43    21    22 1   
    44    21    27 1   
    45    21    48 1   
    46    22    23 1   
    47    22    49 1   
    48    22    50 1   
    49    23    24 1   
    50    23    51 1   
    51    24    25 1   
    52    24    52 1   
    53    24    53 1   
    54    25    26 1   
    55    25    54 1   
    56    25    55 1   
    57    26    56 1   
    58    26    57 1   
    59    27    58 1   
    60    27    59 1   
    61    27    60 1   
    62    28    29 2   
    63    28    30 1   
    64    30    61 1   
    65    30    62 1   
@<TRIPOS>SUBSTRUCTURE
     1 05S         1 TEMP              0 ****  ****    0 ROOT
