@<TRIPOS>MOLECULE
05T
   30    30     1     0     0
SMALL
No Charge or Current Charge


@<TRIPOS>ATOM
      1 CAA         -0.1720     1.3490    -0.0830 c6         1 05T      -0.089400
      2 CAB          0.7510     0.1100    -0.2000 c6         1 05T       0.228500
      3 NAC          2.0990     0.4640     0.2720 nu         1 05T      -0.899400
      4 CAD          3.2190    -0.1260    -0.1160 c2         1 05T       0.790100
      5 NAE          4.1870     0.4800     0.5200 nv         1 05T      -1.068200
      6 NAF          3.3140    -0.9890    -1.0090 n2         1 05T      -0.893100
      7 CAG          0.1830    -1.0650     0.6390 c6         1 05T      -0.089400
      8 CAH         -1.2670    -1.4080     0.2140 c6         1 05T      -0.068400
      9 CAI         -2.2040    -0.1710     0.3200 c6         1 05T      -0.065700
     10 CAJ         -1.6240     1.0140    -0.5090 c6         1 05T      -0.068400
     11 CAK         -3.6570    -0.5440    -0.1030 c3         1 05T       0.153800
     12 NAL         -4.6400     0.5370     0.1060 n8         1 05T      -0.997200
     13 HAA         -0.1720     1.7240     0.9500 hc         1 05T       0.044950
     14 HAAA         0.2160     2.1630    -0.7110 hc         1 05T       0.044950
     15 HAB          0.7790    -0.1910    -1.2600 h1         1 05T       0.085700
     16 HNAC         2.1750     0.8190     1.2140 hn         1 05T       0.464000
     17 HNAE         4.0080     1.4720     0.5760 hn         1 05T       0.450500
     18 HNAA         5.1040     0.2600     0.1590 hn         1 05T       0.450500
     19 HNAF         4.3060    -1.2210    -1.1180 hn         1 05T       0.375400
     20 HAG          0.8190    -1.9530     0.5200 hc         1 05T       0.044950
     21 HAGA         0.2010    -0.8080     1.7080 hc         1 05T       0.044950
     22 HAH         -1.2660    -1.7880    -0.8170 hc         1 05T       0.041200
     23 HAHA        -1.6490    -2.2220     0.8450 hc         1 05T       0.041200
     24 HAI         -2.2570     0.1300     1.3760 hc         1 05T       0.060700
     25 HAJ         -2.2480     1.9090    -0.3850 hc         1 05T       0.041200
     26 HAJA        -1.6440     0.7650    -1.5790 hc         1 05T       0.041200
     27 HAK         -3.6620    -0.8210    -1.1670 h1         1 05T       0.026700
     28 HAKA        -3.9840    -1.4170     0.4780 h1         1 05T       0.026700
     29 HNAL        -4.3890     1.3330    -0.4920 hn         1 05T       0.391000
     30 H2          -5.5510     0.2360    -0.2620 hn         1 05T       0.391000
@<TRIPOS>BOND
     1     1     2 1   
     2     1    10 1   
     3     1    13 1   
     4     1    14 1   
     5     2     3 1   
     6     2     7 1   
     7     2    15 1   
     8     3     4 1   
     9     3    16 1   
    10     4     5 1   
    11     4     6 2   
    12     5    17 1   
    13     5    18 1   
    14     6    19 1   
    15     7     8 1   
    16     7    20 1   
    17     7    21 1   
    18     8     9 1   
    19     8    22 1   
    20     8    23 1   
    21     9    10 1   
    22     9    11 1   
    23     9    24 1   
    24    10    25 1   
    25    10    26 1   
    26    11    12 1   
    27    11    27 1   
    28    11    28 1   
    29    12    29 1   
    30    12    30 1   
@<TRIPOS>SUBSTRUCTURE
     1 05T         1 TEMP              0 ****  ****    0 ROOT
