@<TRIPOS>MOLECULE
05T
   30    30     1     0     0
SMALL
bcc


@<TRIPOS>ATOM
      1 CAA         -0.2430     1.4030    -0.0930 c6         1 05T      -0.089400
      2 CAB          0.7180     0.2240    -0.1970 c6         1 05T       0.228500
      3 NAC          2.0440     0.6410     0.2090 nu         1 05T      -0.844200
      4 CAD          3.1570    -0.0800    -0.1330 c2         1 05T       0.790100
      5 NAE          4.2800     0.2680     0.5910 nv         1 05T      -0.957800
      6 NAF          3.1030    -0.9930    -1.0320 n2         1 05T      -0.893100
      7 CAG          0.1960    -0.9630     0.6140 c6         1 05T      -0.089400
      8 CAH         -1.2180    -1.3470     0.1960 c6         1 05T      -0.068400
      9 CAI         -2.1870    -0.1720     0.3070 c6         1 05T      -0.065700
     10 CAJ         -1.6580     1.0100    -0.5040 c6         1 05T      -0.068400
     11 CAK         -3.5920    -0.5840    -0.1200 c3         1 05T       0.153800
     12 NAL         -4.5630     0.4820     0.0840 n8         1 05T      -0.886800
     13 HAA         -0.2560     1.7680     0.9420 hc         1 05T       0.044950
     14 HAAA         0.1170     2.2290    -0.7120 hc         1 05T       0.044950
     15 HAB          0.7850    -0.0770    -1.2460 h1         1 05T       0.085700
     16 HNAC         2.0810     1.0990     1.1080 hn         1 05T       0.408800
     17 HNAE         4.3170     1.2150     0.9350 hn         1 05T       0.395300
     18 HNAA         5.1560    -0.0090     0.1770 hn         1 05T       0.395300
     19 HNAF         4.0260    -1.3760    -1.2040 hn         1 05T       0.375400
     20 HAG          0.8750    -1.8100     0.4960 hc         1 05T       0.044950
     21 HAGA         0.2040    -0.6920     1.6770 hc         1 05T       0.044950
     22 HAH         -1.2060    -1.7070    -0.8400 hc         1 05T       0.041200
     23 HAHA        -1.5720    -2.1840     0.8060 hc         1 05T       0.041200
     24 HAI         -2.2370     0.1330     1.3610 hc         1 05T       0.060700
     25 HAJ         -2.3160     1.8770    -0.3960 hc         1 05T       0.041200
     26 HAJA        -1.6680     0.7440    -1.5690 hc         1 05T       0.041200
     27 HAK         -3.5500    -0.9470    -1.1590 h1         1 05T       0.026700
     28 HAKA        -3.9010    -1.4400     0.4880 h1         1 05T       0.026700
     29 HNAL        -4.4230     1.2060    -0.6090 hn         1 05T       0.335800
     30 H2          -5.4930     0.1230    -0.0890 hn         1 05T       0.335800
@<TRIPOS>BOND
     1     1     2 1   
     2     1    10 1   
     3     1    13 1   
     4     1    14 1   
     5     2     3 1   
     6     2     7 1   
     7     2    15 1   
     8     3     4 1   
     9     3    16 1   
    10     4     5 1   
    11     4     6 2   
    12     5    17 1   
    13     5    18 1   
    14     6    19 1   
    15     7     8 1   
    16     7    20 1   
    17     7    21 1   
    18     8     9 1   
    19     8    22 1   
    20     8    23 1   
    21     9    10 1   
    22     9    11 1   
    23     9    24 1   
    24    10    25 1   
    25    10    26 1   
    26    11    12 1   
    27    11    27 1   
    28    11    28 1   
    29    12    29 1   
    30    12    30 1   
@<TRIPOS>SUBSTRUCTURE
     1 05T         1 TEMP              0 ****  ****    0 ROOT
