@<TRIPOS>MOLECULE
05U
   32    31     1     0     0
SMALL
abcg2


@<TRIPOS>ATOM
      1 N3           0.2310    -0.1740    -1.7390 n8         1 05U      -1.008200
      2 C11          0.1540    -0.1810    -0.2850 c3         1 05U       0.138500
      3 C12          1.3800     0.5090     0.3100 c3         1 05U      -0.063400
      4 C13          2.7330    -0.0480    -0.1330 c3         1 05U      -0.054700
      5 C15          3.8580     0.7570     0.5130 c3         1 05U      -0.086600
      6 C14          2.8820    -1.5300     0.1970 c3         1 05U      -0.086600
      7 C16         -1.1380     0.4300     0.2960 c3         1 05U       0.125300
      8 O6          -1.2180     1.8150     0.0110 oh         1 05U      -0.652000
      9 C17         -2.4230    -0.2970    -0.1290 c3         1 05U      -0.092700
     10 C23         -2.3770    -1.7830     0.2240 c3         1 05U      -0.087100
     11 C18         -3.6540     0.3460     0.5060 c3         1 05U      -0.087100
     12 H33         -0.5710    -0.6360    -2.1490 hn         1 05U       0.395500
     13 H34          0.1820    -1.2280     0.0320 h1         1 05U       0.065700
     14 H35          1.3420     1.5770     0.0750 hc         1 05U       0.043200
     15 H36          1.3120     0.4410     1.4030 hc         1 05U       0.043200
     16 H37          2.8100     0.0690    -1.2180 hc         1 05U       0.059700
     17 H38          4.8380     0.4190     0.1710 hc         1 05U       0.030533
     18 H39          3.7730     1.8200     0.2800 hc         1 05U       0.030533
     19 H40          3.8350     0.6570     1.6020 hc         1 05U       0.030533
     20 H41          2.1610    -2.1430    -0.3440 hc         1 05U       0.030533
     21 H42          3.8780    -1.8930    -0.0640 hc         1 05U       0.030533
     22 H43          2.7360    -1.7080     1.2650 hc         1 05U       0.030533
     23 H44         -1.0660     0.3620     1.3890 h1         1 05U       0.077700
     24 H45         -1.3770     1.9180    -0.9340 ho         1 05U       0.431000
     25 H46         -2.5240    -0.2070    -1.2190 hc         1 05U       0.035700
     26 H47         -2.1670    -1.9250     1.2870 hc         1 05U       0.037200
     27 H48         -3.3380    -2.2550     0.0130 hc         1 05U       0.037200
     28 H49         -1.6210    -2.3290    -0.3390 hc         1 05U       0.037200
     29 H50         -3.7400     1.4050     0.2630 hc         1 05U       0.037200
     30 H51         -4.5640    -0.1470     0.1600 hc         1 05U       0.037200
     31 H52         -3.6240     0.2550     1.5950 hc         1 05U       0.037200
     32 H2           0.2340     0.7750    -2.0940 hn         1 05U       0.395500
@<TRIPOS>BOND
     1     1     2 1   
     2     1    12 1   
     3     1    32 1   
     4     2     3 1   
     5     2     7 1   
     6     2    13 1   
     7     3     4 1   
     8     3    14 1   
     9     3    15 1   
    10     4     5 1   
    11     4     6 1   
    12     4    16 1   
    13     5    17 1   
    14     5    18 1   
    15     5    19 1   
    16     6    20 1   
    17     6    21 1   
    18     6    22 1   
    19     7     8 1   
    20     7     9 1   
    21     7    23 1   
    22     8    24 1   
    23     9    10 1   
    24     9    11 1   
    25     9    25 1   
    26    10    26 1   
    27    10    27 1   
    28    10    28 1   
    29    11    29 1   
    30    11    30 1   
    31    11    31 1   
@<TRIPOS>SUBSTRUCTURE
     1 05U         1 TEMP              0 ****  ****    0 ROOT
