@<TRIPOS>MOLECULE
05U
   32    31     1     0     0
SMALL
No Charge or Current Charge


@<TRIPOS>ATOM
      1 N3           0.2040    -0.0180    -1.7990 n8         1 05U      -1.008200
      2 C11          0.1750    -0.1330    -0.3160 c3         1 05U       0.138500
      3 C12          1.4410     0.5250     0.3090 c3         1 05U      -0.063400
      4 C13          2.8100    -0.1000    -0.0940 c3         1 05U      -0.054700
      5 C15          3.9830     0.7370     0.4670 c3         1 05U      -0.086600
      6 C14          2.9450    -1.5820     0.3340 c3         1 05U      -0.086600
      7 C16         -1.1560     0.4440     0.2980 c3         1 05U       0.125300
      8 O6          -1.2820     1.8380    -0.0440 oh         1 05U      -0.652000
      9 C17         -2.4650    -0.3060    -0.1270 c3         1 05U      -0.092700
     10 C23         -2.4160    -1.8240     0.1840 c3         1 05U      -0.087100
     11 C18         -3.7310     0.3150     0.5220 c3         1 05U      -0.087100
     12 H33         -0.6770    -0.3780    -2.1780 hn         1 05U       0.395500
     13 H34          0.2100    -1.2010    -0.0620 h1         1 05U       0.065700
     14 H35          1.4500     1.5900     0.0460 hc         1 05U       0.043200
     15 H36          1.3520     0.4830     1.4020 hc         1 05U       0.043200
     16 H37          2.8910    -0.0650    -1.1880 hc         1 05U       0.059700
     17 H38          4.9450     0.3270     0.1380 hc         1 05U       0.030533
     18 H39          3.9220     1.7750     0.1170 hc         1 05U       0.030533
     19 H40          3.9690     0.7430     1.5640 hc         1 05U       0.030533
     20 H41          2.2060    -2.2110    -0.1730 hc         1 05U       0.030533
     21 H42          3.9380    -1.9690     0.0760 hc         1 05U       0.030533
     22 H43          2.8080    -1.6900     1.4170 hc         1 05U       0.030533
     23 H44         -1.0700     0.3460     1.3910 h1         1 05U       0.077700
     24 H45         -1.7340     1.8770    -0.9120 ho         1 05U       0.431000
     25 H46         -2.5830    -0.2050    -1.2130 hc         1 05U       0.035700
     26 H47         -2.2020    -1.9990     1.2460 hc         1 05U       0.037200
     27 H48         -3.3750    -2.3000    -0.0530 hc         1 05U       0.037200
     28 H49         -1.6500    -2.3310    -0.4130 hc         1 05U       0.037200
     29 H50         -3.8650     1.3610     0.2240 hc         1 05U       0.037200
     30 H51         -4.6320    -0.2300     0.2140 hc         1 05U       0.037200
     31 H52         -3.6660     0.2750     1.6160 hc         1 05U       0.037200
     32 H2           0.1910     0.9770    -2.0460 hn         1 05U       0.395500
@<TRIPOS>BOND
     1     1     2 1   
     2     1    12 1   
     3     1    32 1   
     4     2     3 1   
     5     2     7 1   
     6     2    13 1   
     7     3     4 1   
     8     3    14 1   
     9     3    15 1   
    10     4     5 1   
    11     4     6 1   
    12     4    16 1   
    13     5    17 1   
    14     5    18 1   
    15     5    19 1   
    16     6    20 1   
    17     6    21 1   
    18     6    22 1   
    19     7     8 1   
    20     7     9 1   
    21     7    23 1   
    22     8    24 1   
    23     9    10 1   
    24     9    11 1   
    25     9    25 1   
    26    10    26 1   
    27    10    27 1   
    28    10    28 1   
    29    11    29 1   
    30    11    30 1   
    31    11    31 1   
@<TRIPOS>SUBSTRUCTURE
     1 05U         1 TEMP              0 ****  ****    0 ROOT
