@<TRIPOS>MOLECULE
05W
   33    32     1     0     0
SMALL
bcc


@<TRIPOS>ATOM
      1 N4           0.4530    -0.0570    -1.7340 n8         1 05W      -0.898800
      2 C16          0.4390    -0.0340    -0.2770 c3         1 05W       0.135500
      3 C25          1.7880     0.4690     0.2370 c3         1 05W      -0.060400
      4 C26          2.9760    -0.4440    -0.0730 c3         1 05W      -0.060700
      5 C28          4.2870     0.2820     0.2160 c3         1 05W      -0.086100
      6 C27          2.9140    -1.7480     0.7150 c3         1 05W      -0.086100
      7 C17         -0.7160     0.7700     0.3520 c3         1 05W       0.101100
      8 C22         -2.1220     0.3010    -0.0620 c3         1 05W      -0.094700
      9 C23         -3.1920     1.1070     0.6720 c3         1 05W      -0.079100
     10 C24         -2.2950    -1.1940     0.1910 c3         1 05W       0.141400
     11 O7          -3.6140    -1.5750    -0.1300 oh         1 05W      -0.597800
     12 O4          -0.5610     2.1580     0.1170 oh         1 05W      -0.586800
     13 H12         -0.4250    -0.4010    -2.1030 hn         1 05W       0.341800
     14 H13          0.3200    -1.0680     0.0600 h1         1 05W       0.062700
     15 H14          1.9770     1.4620    -0.1820 hc         1 05W       0.044700
     16 H15          1.7250     0.6070     1.3230 hc         1 05W       0.044700
     17 H16          2.9450    -0.6840    -1.1410 hc         1 05W       0.064700
     18 H17          4.3440     0.5820     1.2660 hc         1 05W       0.030033
     19 H18          5.1490    -0.3560     0.0100 hc         1 05W       0.030033
     20 H19          4.3890     1.1830    -0.3910 hc         1 05W       0.030033
     21 H20          2.9340    -1.5510     1.7910 hc         1 05W       0.030033
     22 H21          2.0110    -2.3230     0.5030 hc         1 05W       0.030033
     23 H22          3.7660    -2.3890     0.4830 hc         1 05W       0.030033
     24 H23         -0.6320     0.6520     1.4400 h1         1 05W       0.077700
     25 H24         -2.2370     0.4760    -1.1410 hc         1 05W       0.047700
     26 H25         -3.1240     0.9500     1.7520 hc         1 05W       0.042033
     27 H26         -3.0820     2.1740     0.4860 hc         1 05W       0.042033
     28 H27         -4.1940     0.8230     0.3570 hc         1 05W       0.042033
     29 H28         -1.5780    -1.7650    -0.4100 h1         1 05W       0.019200
     30 H29         -2.0600    -1.4040     1.2460 h1         1 05W       0.019200
     31 H30         -3.6890    -2.5240     0.0050 ho         1 05W       0.406000
     32 H31         -0.7300     2.3280    -0.8160 ho         1 05W       0.394000
     33 H2           0.5800     0.8760    -2.1060 hn         1 05W       0.341800
@<TRIPOS>BOND
     1     1     2 1   
     2     1    13 1   
     3     1    33 1   
     4     2     3 1   
     5     2     7 1   
     6     2    14 1   
     7     3     4 1   
     8     3    15 1   
     9     3    16 1   
    10     4     5 1   
    11     4     6 1   
    12     4    17 1   
    13     5    18 1   
    14     5    19 1   
    15     5    20 1   
    16     6    21 1   
    17     6    22 1   
    18     6    23 1   
    19     7     8 1   
    20     7    12 1   
    21     7    24 1   
    22     8     9 1   
    23     8    10 1   
    24     8    25 1   
    25     9    26 1   
    26     9    27 1   
    27     9    28 1   
    28    10    11 1   
    29    10    29 1   
    30    10    30 1   
    31    11    31 1   
    32    12    32 1   
@<TRIPOS>SUBSTRUCTURE
     1 05W         1 TEMP              0 ****  ****    0 ROOT
