@<TRIPOS>MOLECULE
05W
   33    32     1     0     0
SMALL
No Charge or Current Charge


@<TRIPOS>ATOM
      1 N4           0.4710    -0.0430    -1.7480 n8         1 05W      -1.009200
      2 C16          0.4660    -0.0220    -0.2600 c3         1 05W       0.135500
      3 C25          1.8400     0.4700     0.2830 c3         1 05W      -0.060400
      4 C26          3.0770    -0.4040    -0.0830 c3         1 05W      -0.060700
      5 C28          4.3870     0.2750     0.3800 c3         1 05W      -0.086100
      6 C27          2.9840    -1.8440     0.4770 c3         1 05W      -0.086100
      7 C17         -0.7360     0.8150     0.3220 c3         1 05W       0.124300
      8 C22         -2.1680     0.2820    -0.0350 c3         1 05W      -0.094700
      9 C23         -3.2790     1.1820     0.5840 c3         1 05W      -0.079100
     10 C24         -2.3650    -1.2050     0.3830 c3         1 05W       0.164600
     11 O7          -3.6450    -1.6890    -0.0410 oh         1 05W      -0.660000
     12 O4          -0.6200     2.1850    -0.1130 oh         1 05W      -0.649000
     13 H12         -0.4740    -0.2510    -2.0880 hn         1 05W       0.397000
     14 H13          0.3400    -1.0550     0.0870 h1         1 05W       0.062700
     15 H14          2.0160     1.4920    -0.0750 hc         1 05W       0.044700
     16 H15          1.7780     0.5390     1.3760 hc         1 05W       0.044700
     17 H16          3.1290    -0.4790    -1.1770 hc         1 05W       0.064700
     18 H17          4.4080     0.3790     1.4720 hc         1 05W       0.030033
     19 H18          5.2590    -0.3150     0.0740 hc         1 05W       0.030033
     20 H19          4.4850     1.2740    -0.0620 hc         1 05W       0.030033
     21 H20          2.8640    -1.8330     1.5670 hc         1 05W       0.030033
     22 H21          2.1380    -2.3870     0.0400 hc         1 05W       0.030033
     23 H22          3.8930    -2.4100     0.2390 hc         1 05W       0.030033
     24 H23         -0.6450     0.7770     1.4170 h1         1 05W       0.077700
     25 H24         -2.2860     0.3290    -1.1250 hc         1 05W       0.047700
     26 H25         -3.2140     1.1810     1.6790 hc         1 05W       0.042033
     27 H26         -3.1980     2.2190     0.2380 hc         1 05W       0.042033
     28 H27         -4.2790     0.8310     0.3030 hc         1 05W       0.042033
     29 H28         -1.5850    -1.8280    -0.0720 h1         1 05W       0.019200
     30 H29         -2.2670    -1.2900     1.4730 h1         1 05W       0.019200
     31 H30         -3.7120    -2.6230     0.2590 ho         1 05W       0.445000
     32 H31         -0.9730     2.2260    -1.0260 ho         1 05W       0.433000
     33 H2           0.6580     0.9040    -2.0920 hn         1 05W       0.397000
@<TRIPOS>BOND
     1     1     2 1   
     2     1    13 1   
     3     1    33 1   
     4     2     3 1   
     5     2     7 1   
     6     2    14 1   
     7     3     4 1   
     8     3    15 1   
     9     3    16 1   
    10     4     5 1   
    11     4     6 1   
    12     4    17 1   
    13     5    18 1   
    14     5    19 1   
    15     5    20 1   
    16     6    21 1   
    17     6    22 1   
    18     6    23 1   
    19     7     8 1   
    20     7    12 1   
    21     7    24 1   
    22     8     9 1   
    23     8    10 1   
    24     8    25 1   
    25     9    26 1   
    26     9    27 1   
    27     9    28 1   
    28    10    11 1   
    29    10    29 1   
    30    10    30 1   
    31    11    31 1   
    32    12    32 1   
@<TRIPOS>SUBSTRUCTURE
     1 05W         1 TEMP              0 ****  ****    0 ROOT
