@<TRIPOS>MOLECULE
05X
   45    47     1     0     0
SMALL
abcg2


@<TRIPOS>ATOM
      1 C10        125.3540   132.5120   119.1410 ca         1 05X       0.299500
      2 C13        127.5730   133.3140   117.7990 ca         1 05X      -0.186000
      3 C15        125.5440   132.0530   117.8460 ca         1 05X      -0.137000
      4 C17        128.3580   134.8240   121.0520 c          1 05X       0.643700
      5 C20        129.0770   137.1020   121.8250 ca         1 05X       0.262000
      6 C21        130.0070   138.0800   122.1110 ca         1 05X      -0.226000
      7 C22        131.3340   137.7680   121.8830 ca         1 05X       0.247000
      8 C24        130.7660   135.6120   121.1280 ca         1 05X       0.262000
      9 N2         123.0380   134.0200   123.4520 n3         1 05X      -0.719600
     10 C3         122.5890   134.6720   122.2400 c6         1 05X       0.170300
     11 C4         123.4400   134.2040   121.0550 c6         1 05X      -0.063900
     12 C5         123.8800   132.7330   121.2520 c6         1 05X      -0.140700
     13 C6         122.8170   131.9950   122.0530 c6         1 05X      -0.063900
     14 C7         122.6870   132.6080   123.4500 c6         1 05X       0.170300
     15 C8         124.1310   132.0960   119.9100 c          1 05X       0.486600
     16 O9         123.3750   131.2840   119.4240 o          1 05X      -0.522100
     17 N11        126.2060   133.3310   119.7520 nb         1 05X      -0.661000
     18 C12        127.2850   133.7180   119.1060 ca         1 05X       0.479900
     19 C14        126.6810   132.4720   117.1680 ca         1 05X      -0.060000
     20 N16        128.1720   134.6020   119.7240 ns         1 05X      -0.323900
     21 O18        127.7630   134.2870   121.9570 o          1 05X      -0.500100
     22 C19        129.4170   135.8580   121.3170 ca         1 05X      -0.279600
     23 C23        131.7490   136.5420   121.4010 ca         1 05X      -0.226000
     24 F26        132.2570   138.6930   122.1420 f          1 05X      -0.158000
     25 F27        127.7860   137.3640   122.0230 f          1 05X      -0.152500
     26 H1         128.4720   133.6520   117.3010 ha         1 05X       0.125000
     27 H2         124.8270   131.3940   117.3790 ha         1 05X       0.148000
     28 H3         129.7070   139.0470   122.4920 ha         1 05X       0.160500
     29 H4         122.9210   135.7080   124.6780 h1         1 05X       0.028033
     30 H5         121.4870   134.6680   124.7670 h1         1 05X       0.028033
     31 H6         123.0000   134.1660   125.5300 h1         1 05X       0.028033
     32 H8         122.6980   135.7520   122.3560 h1         1 05X       0.030450
     33 H9         121.5180   134.4910   122.0460 h1         1 05X       0.030450
     34 H10        124.3240   134.8330   120.9540 hc         1 05X       0.049700
     35 H11        122.8600   134.3170   120.1350 hc         1 05X       0.049700
     36 H12        124.8210   132.7380   121.8090 hc         1 05X       0.110700
     37 H13        121.8610   132.0530   121.5270 hc         1 05X       0.049700
     38 H14        123.0520   130.9340   122.1460 hc         1 05X       0.049700
     39 H15        121.6570   132.4500   123.8120 h1         1 05X       0.030450
     40 H16        123.3460   132.0900   124.1530 h1         1 05X       0.030450
     41 H17        126.8710   132.1410   116.1560 ha         1 05X       0.125000
     42 H18        128.7840   135.1010   119.0960 hn         1 05X       0.159000
     43 H19        132.7950   136.3180   121.2430 ha         1 05X       0.160500
     44 F25        131.1280   134.4140   120.6650 f          1 05X      -0.152500
     45 C1         122.5830   134.6700   124.6560 c3         1 05X       0.159100
@<TRIPOS>BOND
     1     1     3 ar  
     2     1    15 1   
     3     1    17 ar  
     4     2    18 ar  
     5     2    19 ar  
     6     2    26 1   
     7     3    19 ar  
     8     3    27 1   
     9     4    20 1   
    10     4    21 2   
    11     4    22 1   
    12     5     6 ar  
    13     5    22 ar  
    14     5    25 1   
    15     6     7 ar  
    16     6    28 1   
    17     7    23 ar  
    18     7    24 1   
    19     8    22 ar  
    20     8    23 ar  
    21     8    44 1   
    22     9    10 1   
    23     9    14 1   
    24     9    45 1   
    25    10    11 1   
    26    10    32 1   
    27    10    33 1   
    28    11    12 1   
    29    11    34 1   
    30    11    35 1   
    31    12    13 1   
    32    12    15 1   
    33    12    36 1   
    34    13    14 1   
    35    13    37 1   
    36    13    38 1   
    37    14    39 1   
    38    14    40 1   
    39    15    16 2   
    40    17    18 ar  
    41    18    20 1   
    42    19    41 1   
    43    20    42 1   
    44    23    43 1   
    45    29    45 1   
    46    30    45 1   
    47    31    45 1   
@<TRIPOS>SUBSTRUCTURE
     1 05X         1 TEMP              0 ****  ****    0 ROOT
