@<TRIPOS>MOLECULE
05X
   45    47     1     0     0
SMALL
No Charge or Current Charge


@<TRIPOS>ATOM
      1 C10        125.3750   132.5200   119.0590 ca         1 05X       0.299500
      2 C13        127.8820   132.8270   117.9060 ca         1 05X      -0.186000
      3 C15        125.7010   131.8070   117.8800 ca         1 05X      -0.137000
      4 C17        128.5420   134.6950   121.0340 c          1 05X       0.643700
      5 C20        129.3670   136.5650   122.5240 ca         1 05X       0.262000
      6 C21        130.2590   137.5990   122.8370 ca         1 05X      -0.226000
      7 C22        131.3230   137.8850   121.9790 ca         1 05X       0.247000
      8 C24        130.6080   136.1100   120.4930 ca         1 05X       0.262000
      9 N2         122.9220   134.2150   123.4240 n3         1 05X      -0.719600
     10 C3         122.2290   134.8090   122.2490 c6         1 05X       0.170300
     11 C4         122.8560   134.3420   120.9040 c6         1 05X      -0.063900
     12 C5         123.6450   133.0090   121.0390 c6         1 05X      -0.140700
     13 C6         123.0310   132.0400   122.0820 c6         1 05X      -0.063900
     14 C7         122.7810   132.7290   123.4580 c6         1 05X       0.170300
     15 C8         123.9740   132.3520   119.6700 c          1 05X       0.486600
     16 O9         123.0910   131.7260   119.0860 o          1 05X      -0.522100
     17 N11        126.2810   133.3600   119.6380 nb         1 05X      -0.661000
     18 C12        127.5040   133.4800   119.0870 ca         1 05X       0.479900
     19 C14        126.9670   131.9620   117.2900 ca         1 05X      -0.060000
     20 N16        128.3560   134.4050   119.7000 ns         1 05X      -0.323900
     21 O18        127.9920   134.0590   121.9230 o          1 05X      -0.500100
     22 C19        129.5190   135.8030   121.3440 ca         1 05X      -0.279600
     23 C23        131.5000   137.1430   120.8100 ca         1 05X      -0.226000
     24 F26        132.1830   138.8800   122.2820 f          1 05X      -0.158000
     25 F27        128.3350   136.3490   123.3690 f          1 05X      -0.152500
     26 H1         128.8690   132.9860   117.4810 ha         1 05X       0.125000
     27 H2         124.9720   131.1430   117.4210 ha         1 05X       0.148000
     28 H3         130.1220   138.1800   123.7430 ha         1 05X       0.160500
     29 H4         122.7240   135.9270   124.6750 h1         1 05X       0.028033
     30 H5         121.4670   134.6880   124.9100 h1         1 05X       0.028033
     31 H6         123.1140   134.4220   125.5350 h1         1 05X       0.028033
     32 H8         122.2610   135.9080   122.2900 h1         1 05X       0.030450
     33 H9         121.1670   134.5220   122.2660 h1         1 05X       0.030450
     34 H10        123.5270   135.1230   120.5200 hc         1 05X       0.049700
     35 H11        122.0540   134.2370   120.1600 hc         1 05X       0.049700
     36 H12        124.6080   133.3130   121.4660 hc         1 05X       0.110700
     37 H13        122.0750   131.6570   121.7010 hc         1 05X       0.049700
     38 H14        123.6790   131.1640   122.2200 hc         1 05X       0.049700
     39 H15        121.7750   132.4490   123.8060 h1         1 05X       0.030450
     40 H16        123.4910   132.3150   124.1890 h1         1 05X       0.030450
     41 H17        127.2270   131.4280   116.3780 ha         1 05X       0.125000
     42 H18        128.9220   134.9400   119.0570 hn         1 05X       0.159000
     43 H19        132.3340   137.3620   120.1510 ha         1 05X       0.160500
     44 F25        130.8540   135.3970   119.3720 f          1 05X      -0.152500
     45 C1         122.5350   134.8460   124.7030 c3         1 05X       0.159100
@<TRIPOS>BOND
     1     1     3 ar  
     2     1    15 1   
     3     1    17 ar  
     4     2    18 ar  
     5     2    19 ar  
     6     2    26 1   
     7     3    19 ar  
     8     3    27 1   
     9     4    20 1   
    10     4    21 2   
    11     4    22 1   
    12     5     6 ar  
    13     5    22 ar  
    14     5    25 1   
    15     6     7 ar  
    16     6    28 1   
    17     7    23 ar  
    18     7    24 1   
    19     8    22 ar  
    20     8    23 ar  
    21     8    44 1   
    22     9    10 1   
    23     9    14 1   
    24     9    45 1   
    25    10    11 1   
    26    10    32 1   
    27    10    33 1   
    28    11    12 1   
    29    11    34 1   
    30    11    35 1   
    31    12    13 1   
    32    12    15 1   
    33    12    36 1   
    34    13    14 1   
    35    13    37 1   
    36    13    38 1   
    37    14    39 1   
    38    14    40 1   
    39    15    16 2   
    40    17    18 ar  
    41    18    20 1   
    42    19    41 1   
    43    20    42 1   
    44    23    43 1   
    45    29    45 1   
    46    30    45 1   
    47    31    45 1   
@<TRIPOS>SUBSTRUCTURE
     1 05X         1 TEMP              0 ****  ****    0 ROOT
