@<TRIPOS>MOLECULE
05Y
   40    42     1     0     0
SMALL
bcc


@<TRIPOS>ATOM
      1 C05         -4.2310     0.6910     9.6140 c3         1 05Y      -0.083100
      2 C06         -4.8470     1.9590    10.2020 c3         1 05Y      -0.146400
      3 C07         -6.0080     2.4470     9.3720 c          1 05Y       0.694100
      4 C09         -4.6320     4.1620     8.2560 cc         1 05Y       0.487400
      5 C11         -2.6380     4.5430     7.6440 ca         1 05Y       0.080400
      6 C12         -1.3160     4.4670     7.2120 ca         1 05Y      -0.070000
      7 C13         -0.6170     5.6510     7.0540 ca         1 05Y      -0.150000
      8 C14         -1.2130     6.8920     7.3220 ca         1 05Y      -0.114000
      9 C15         -2.5250     6.9870     7.7530 ca         1 05Y      -0.127000
     10 C16         -3.2180     5.7930     7.9090 ca         1 05Y      -0.065200
     11 C19         -6.1350     7.1470     7.4310 c3         1 05Y      -0.149700
     12 C20         -6.7050     6.1250     6.4910 ca         1 05Y       0.396600
     13 C22         -6.3330     4.6730     4.7640 ca         1 05Y       0.411200
     14 C23         -7.6200     4.1620     4.8280 ca         1 05Y      -0.242300
     15 C24         -8.4810     4.6810     5.7820 ca         1 05Y      -0.088000
     16 C25         -8.0180     5.6780     6.6270 ca         1 05Y      -0.254300
     17 N08         -5.8300     3.5520     8.5790 ns         1 05Y      -0.502400
     18 N10         -3.5570     3.5450     7.8580 nd         1 05Y      -0.590100
     19 N17         -4.4970     5.5170     8.3260 na         1 05Y      -0.155300
     20 N21         -5.8810     5.6270     5.5700 nb         1 05Y      -0.659000
     21 O26         -7.0950     1.9040     9.4060 o          1 05Y      -0.584100
     22 H1          -3.4420     0.3230    10.2680 hc         1 05Y       0.046033
     23 H2          -4.9740    -0.0990     9.5110 hc         1 05Y       0.046033
     24 H3          -3.7940     0.8850     8.6360 hc         1 05Y       0.046033
     25 H4          -4.0810     2.7230    10.3260 hc         1 05Y       0.065200
     26 H5          -5.2490     1.7420    11.1930 hc         1 05Y       0.065200
     27 H6          -0.8540     3.5110     7.0040 ha         1 05Y       0.145000
     28 H7           0.4110     5.6230     6.7160 ha         1 05Y       0.131000
     29 H8          -0.6340     7.7970     7.1870 ha         1 05Y       0.129000
     30 H9          -2.9800     7.9480     7.9580 ha         1 05Y       0.133000
     31 H10         -5.0500     7.2560     9.2980 h1         1 05Y       0.064200
     32 H11         -6.2700     5.9990     9.2690 h1         1 05Y       0.064200
     33 H12         -5.3870     7.7470     6.9100 hc         1 05Y       0.069200
     34 H13         -6.9160     7.8250     7.7790 hc         1 05Y       0.069200
     35 H14         -5.6330     4.2960     4.0270 h4         1 05Y       0.026100
     36 H15         -7.9340     3.3820     4.1480 ha         1 05Y       0.147000
     37 H16         -9.4970     4.3170     5.8690 ha         1 05Y       0.143000
     38 H17         -8.6610     6.1080     7.3840 ha         1 05Y       0.141000
     39 H18         -6.6610     3.8650     8.0910 hn         1 05Y       0.330500
     40 C18         -5.5080     6.4930     8.6660 c3         1 05Y       0.053300
@<TRIPOS>BOND
     1     1     2 1   
     2     1    22 1   
     3     1    23 1   
     4     1    24 1   
     5     2     3 1   
     6     2    25 1   
     7     2    26 1   
     8     3    17 1   
     9     3    21 2   
    10     4    17 1   
    11     4    18 2   
    12     4    19 1   
    13     5     6 ar  
    14     5    10 ar  
    15     5    18 1   
    16     6     7 ar  
    17     6    27 1   
    18     7     8 ar  
    19     7    28 1   
    20     8     9 ar  
    21     8    29 1   
    22     9    10 ar  
    23     9    30 1   
    24    10    19 1   
    25    11    12 1   
    26    11    33 1   
    27    11    34 1   
    28    11    40 1   
    29    12    16 ar  
    30    12    20 ar  
    31    13    14 ar  
    32    13    20 ar  
    33    13    35 1   
    34    14    15 ar  
    35    14    36 1   
    36    15    16 ar  
    37    15    37 1   
    38    16    38 1   
    39    17    39 1   
    40    19    40 1   
    41    31    40 1   
    42    32    40 1   
@<TRIPOS>SUBSTRUCTURE
     1 05Y         1 TEMP              0 ****  ****    0 ROOT
