@<TRIPOS>MOLECULE
05Y
   40    42     1     0     0
SMALL
No Charge or Current Charge


@<TRIPOS>ATOM
      1 C05         -4.4230     0.5710     8.7980 c3         1 05Y      -0.083100
      2 C06         -5.0110     1.6120     9.7790 c3         1 05Y      -0.146400
      3 C07         -6.0410     2.5290     9.0930 c          1 05Y       0.627100
      4 C09         -4.5230     4.4460     8.5710 cc         1 05Y       0.487400
      5 C11         -2.4380     4.8350     8.1730 ca         1 05Y       0.080400
      6 C12         -1.0550     4.7230     7.9680 ca         1 05Y      -0.052000
      7 C13         -0.3260     5.8910     7.6560 ca         1 05Y      -0.132000
      8 C14         -0.9830     7.1400     7.5510 ca         1 05Y      -0.096000
      9 C15         -2.3750     7.2300     7.7600 ca         1 05Y      -0.109000
     10 C16         -3.0620     6.0470     8.0720 ca         1 05Y      -0.065200
     11 C19         -5.9970     7.1110     6.8780 c3         1 05Y      -0.149700
     12 C20         -6.7420     5.9000     6.3420 ca         1 05Y       0.331300
     13 C22         -6.7330     4.0630     4.9260 ca         1 05Y       0.345900
     14 C23         -7.9880     3.6380     5.3920 ca         1 05Y      -0.159000
     15 C24         -8.6420     4.3910     6.3800 ca         1 05Y      -0.070000
     16 C25         -8.0010     5.5440     6.8610 ca         1 05Y      -0.171000
     17 N08         -5.7350     3.8360     8.8010 ns         1 05Y      -0.435400
     18 N10         -3.3380     3.8180     8.4780 nd         1 05Y      -0.590100
     19 N17         -4.3840     5.8150     8.3200 na         1 05Y      -0.184600
     20 N21         -6.1140     5.1740     5.3910 nb         1 05Y      -0.659000
     21 O26         -7.1820     2.1400     8.8960 o          1 05Y      -0.584100
     22 H1          -3.6970    -0.0720     9.3110 hc         1 05Y       0.046033
     23 H2          -5.2160    -0.0670     8.3890 hc         1 05Y       0.046033
     24 H3          -3.9140     1.0630     7.9610 hc         1 05Y       0.046033
     25 H4          -4.1900     2.1880    10.2160 hc         1 05Y       0.065200
     26 H5          -5.5210     1.0620    10.5780 hc         1 05Y       0.065200
     27 H6          -0.5600     3.7580     8.0470 ha         1 05Y       0.127000
     28 H7           0.7480     5.8300     7.4930 ha         1 05Y       0.113000
     29 H8          -0.4130     8.0350     7.3080 ha         1 05Y       0.111000
     30 H9          -2.8890     8.1850     7.6780 ha         1 05Y       0.115000
     31 H10         -4.9740     7.8050     8.6600 h1         1 05Y       0.064200
     32 H11         -6.2230     6.6020     8.9800 h1         1 05Y       0.064200
     33 H12         -5.1870     7.4010     6.1990 hc         1 05Y       0.069200
     34 H13         -6.6800     7.9670     6.9210 hc         1 05Y       0.069200
     35 H14         -6.2040     3.4970     4.1600 h4         1 05Y       0.026100
     36 H15         -8.4420     2.7380     4.9880 ha         1 05Y       0.129000
     37 H16         -9.6150     4.0890     6.7620 ha         1 05Y       0.125000
     38 H17         -8.4720     6.1540     7.6280 ha         1 05Y       0.123000
     39 H18         -6.5520     4.3850     8.5870 hn         1 05Y       0.330500
     40 C18         -5.4150     6.8710     8.2880 c3         1 05Y       0.082600
@<TRIPOS>BOND
     1     1     2 1   
     2     1    22 1   
     3     1    23 1   
     4     1    24 1   
     5     2     3 1   
     6     2    25 1   
     7     2    26 1   
     8     3    17 1   
     9     3    21 2   
    10     4    17 1   
    11     4    18 2   
    12     4    19 1   
    13     5     6 ar  
    14     5    10 ar  
    15     5    18 1   
    16     6     7 ar  
    17     6    27 1   
    18     7     8 ar  
    19     7    28 1   
    20     8     9 ar  
    21     8    29 1   
    22     9    10 ar  
    23     9    30 1   
    24    10    19 1   
    25    11    12 1   
    26    11    33 1   
    27    11    34 1   
    28    11    40 1   
    29    12    16 ar  
    30    12    20 ar  
    31    13    14 ar  
    32    13    20 ar  
    33    13    35 1   
    34    14    15 ar  
    35    14    36 1   
    36    15    16 ar  
    37    15    37 1   
    38    16    38 1   
    39    17    39 1   
    40    19    40 1   
    41    31    40 1   
    42    32    40 1   
@<TRIPOS>SUBSTRUCTURE
     1 05Y         1 TEMP              0 ****  ****    0 ROOT
