@<TRIPOS>MOLECULE
05Z
   27    29     1     0     0
SMALL
abcg2


@<TRIPOS>ATOM
      1 C10        -30.6620     0.0640    27.0350 ca         1 05Z      -0.096300
      2 C11        -29.6420     0.3620    26.1360 ca         1 05Z      -0.090000
      3 C12        -29.8920     1.1550    25.0250 ca         1 05Z      -0.111500
      4 C13        -31.1660     1.6630    24.8060 ca         1 05Z      -0.098000
      5 C14        -32.1880     1.3740    25.7010 ca         1 05Z      -0.111500
      6 C15        -31.9360     0.5810    26.8120 ca         1 05Z      -0.090000
      7 C2         -29.5200    -2.8120    31.8050 ca         1 05Z       0.220000
      8 C4         -29.0240    -1.1720    33.1910 ca         1 05Z       0.246000
      9 C5         -29.2460    -0.2440    32.1670 ca         1 05Z      -0.197200
     10 C6         -29.6240    -0.7200    30.9150 ca         1 05Z       0.262300
     11 C8         -28.6700     0.7330    34.0200 cc         1 05Z       0.438700
     12 C9         -30.3870    -0.7800    28.2440 c3         1 05Z       0.123900
     13 N1         -29.7560    -2.0300    30.7620 nb         1 05Z      -0.199000
     14 N3         -29.1600    -2.4890    33.0170 nb         1 05Z      -0.104000
     15 N7         -29.0090     0.9730    32.7360 na         1 05Z      -0.280600
     16 N9         -28.6660    -0.5380    34.3370 nd         1 05Z      -0.630700
     17 S1         -29.9130     0.3620    29.5860 ss         1 05Z      -0.362300
     18 H1         -28.6480    -0.0350    26.3030 ha         1 05Z       0.117000
     19 H2         -29.0930     1.3750    24.3290 ha         1 05Z       0.116000
     20 H3         -31.3630     2.2820    23.9400 ha         1 05Z       0.115000
     21 H4         -33.1830     1.7660    25.5340 ha         1 05Z       0.116000
     22 H5         -32.7350     0.3560    27.5080 ha         1 05Z       0.117000
     23 H7         -31.2680    -1.3380    28.5560 h1         1 05Z       0.089200
     24 H8         -29.5690    -1.4780    28.0730 h1         1 05Z       0.089200
     25 H6         -28.4310     1.5410    34.6940 h5         1 05Z       0.071800
     26 H9         -29.0740     1.8840    32.3060 hn         1 05Z       0.374000
     27 CL1        -29.7210    -4.5060    31.4980 cl         1 05Z      -0.124000
@<TRIPOS>BOND
     1     1     2 ar  
     2     1     6 ar  
     3     1    12 1   
     4     2     3 ar  
     5     2    18 1   
     6     3     4 ar  
     7     3    19 1   
     8     4     5 ar  
     9     4    20 1   
    10     5     6 ar  
    11     5    21 1   
    12     6    22 1   
    13     7    13 ar  
    14     7    14 ar  
    15     7    27 1   
    16     8     9 ar  
    17     8    14 ar  
    18     8    16 1   
    19     9    10 ar  
    20     9    15 1   
    21    10    13 ar  
    22    10    17 1   
    23    11    15 1   
    24    11    16 2   
    25    11    25 1   
    26    12    17 1   
    27    12    23 1   
    28    12    24 1   
    29    15    26 1   
@<TRIPOS>SUBSTRUCTURE
     1 05Z         1 TEMP              0 ****  ****    0 ROOT
