@<TRIPOS>MOLECULE
05Z
   27    29     1     0     0
SMALL
No Charge or Current Charge


@<TRIPOS>ATOM
      1 C10        -30.6670     0.1210    27.0050 ca         1 05Z      -0.096300
      2 C11        -29.6310     0.4250    26.0990 ca         1 05Z      -0.090000
      3 C12        -29.8940     1.2000    24.9560 ca         1 05Z      -0.111500
      4 C13        -31.1930     1.6770    24.7120 ca         1 05Z      -0.098000
      5 C14        -32.2290     1.3790    25.6130 ca         1 05Z      -0.111500
      6 C15        -31.9680     0.6040    26.7560 ca         1 05Z      -0.090000
      7 C2         -29.5310    -2.9190    31.8720 ca         1 05Z       0.220000
      8 C4         -28.9990    -1.2110    33.2970 ca         1 05Z       0.246000
      9 C5         -29.2210    -0.3330    32.2720 ca         1 05Z      -0.197200
     10 C6         -29.6120    -0.7880    31.0040 ca         1 05Z       0.262300
     11 C8         -28.6260     0.7900    34.0800 cc         1 05Z       0.438700
     12 C9         -30.3840    -0.7180    28.2420 c3         1 05Z       0.123900
     13 N1         -29.7690    -2.1140    30.8060 nb         1 05Z      -0.199000
     14 N3         -29.1520    -2.5370    33.1160 nb         1 05Z      -0.104000
     15 N7         -28.9910     0.9270    32.7460 na         1 05Z      -0.280600
     16 N9         -28.6230    -0.5110    34.4460 nd         1 05Z      -0.630700
     17 S1         -29.9010     0.3650    29.6640 ss         1 05Z      -0.362300
     18 H1         -28.6220     0.0620    26.2820 ha         1 05Z       0.117000
     19 H2         -29.0900     1.4310    24.2600 ha         1 05Z       0.116000
     20 H3         -31.3960     2.2770    23.8270 ha         1 05Z       0.115000
     21 H4         -33.2350     1.7490    25.4260 ha         1 05Z       0.116000
     22 H5         -32.7750     0.3800    27.4500 ha         1 05Z       0.117000
     23 H7         -31.2770    -1.2960    28.5140 h1         1 05Z       0.089200
     24 H8         -29.5710    -1.4270    28.0340 h1         1 05Z       0.089200
     25 H6         -28.3840     1.6400    34.7080 h5         1 05Z       0.071800
     26 H9         -29.0660     1.8010    32.2400 hn         1 05Z       0.374000
     27 Cl1        -29.7370    -4.6430    31.6080 cl         1 05Z      -0.124000
@<TRIPOS>BOND
     1     1     2 ar  
     2     1     6 ar  
     3     1    12 1   
     4     2     3 ar  
     5     2    18 1   
     6     3     4 ar  
     7     3    19 1   
     8     4     5 ar  
     9     4    20 1   
    10     5     6 ar  
    11     5    21 1   
    12     6    22 1   
    13     7    13 ar  
    14     7    14 ar  
    15     7    27 1   
    16     8     9 ar  
    17     8    14 ar  
    18     8    16 1   
    19     9    10 ar  
    20     9    15 1   
    21    10    13 ar  
    22    10    17 1   
    23    11    15 1   
    24    11    16 2   
    25    11    25 1   
    26    12    17 1   
    27    12    23 1   
    28    12    24 1   
    29    15    26 1   
@<TRIPOS>SUBSTRUCTURE
     1 05Z         1 TEMP              0 ****  ****    0 ROOT
