@<TRIPOS>MOLECULE
060
   16    15     1     0     0
SMALL
bcc


@<TRIPOS>ATOM
      1 C            3.2290     0.7630     0.6550 c3         1 060       0.002000
      2 N           -0.5730    -1.7950    -0.1690 n8         1 060      -0.875800
      3 S            2.1090    -0.0670    -0.4940 ss         1 060      -0.424200
      4 C1           0.5070     0.4430     0.2010 c3         1 060       0.025700
      5 C2          -0.6380    -0.3680    -0.4230 c3         1 060       0.024500
      6 C13         -1.9640     0.2340     0.1090 c          1 060       0.935600
      7 H            3.0570     0.4300     1.6780 h1         1 060       0.044700
      8 HA           4.2480     0.5060     0.3720 h1         1 060       0.044700
      9 HB           3.1160     1.8450     0.6050 h1         1 060       0.044700
     10 HN           0.3740    -2.1310    -0.3010 hn         1 060       0.328300
     11 H1           0.5300     0.2810     1.2820 h1         1 060       0.059700
     12 H1A          0.3640     1.5090     0.0170 h1         1 060       0.059700
     13 H2          -0.6080    -0.2040    -1.5060 h1         1 060       0.058700
     14 H3          -0.8040    -1.9560     0.8030 hn         1 060       0.328300
     15 O4          -2.3040     1.3250    -0.3870 o          1 060      -0.828800
     16 O5          -2.5500    -0.3950     1.0100 o          1 060      -0.828800
@<TRIPOS>BOND
     1     1     3 1   
     2     1     7 1   
     3     1     8 1   
     4     1     9 1   
     5     2     5 1   
     6     2    10 1   
     7     2    14 1   
     8     3     4 1   
     9     4     5 1   
    10     4    11 1   
    11     4    12 1   
    12     5     6 1   
    13     5    13 1   
    14     6    15 1   
    15     6    16 1   
@<TRIPOS>SUBSTRUCTURE
     1 060         1 TEMP              0 ****  ****    0 ROOT
