@<TRIPOS>MOLECULE
060
   16    15     1     0     0
SMALL
No Charge or Current Charge


@<TRIPOS>ATOM
      1 C            3.2970     0.7550     0.6810 c3         1 060       0.049900
      2 N           -0.5760    -1.8180    -0.3410 n8         1 060      -0.986200
      3 S            2.1370    -0.2450    -0.3580 ss         1 060      -0.520000
      4 C1           0.5090     0.3640     0.3080 c3         1 060       0.073600
      5 C2          -0.6920    -0.3090    -0.4060 c3         1 060       0.024500
      6 C13         -2.0440     0.3250     0.1100 c          1 060       0.725000
      7 H            3.1380     0.5270     1.7430 h1         1 060       0.044700
      8 HA           4.3340     0.5150     0.4140 h1         1 060       0.044700
      9 HB           3.1210     1.8250     0.5120 h1         1 060       0.044700
     10 HN           0.4090    -2.0530    -0.5140 hn         1 060       0.383500
     11 H1           0.4630     0.1590     1.3860 h1         1 060       0.059700
     12 H1A          0.4510     1.4520     0.1670 h1         1 060       0.059700
     13 H2          -0.6150    -0.0350    -1.4680 h1         1 060       0.058700
     14 H3          -0.7270    -2.1160     0.6300 hn         1 060       0.383500
     15 O4          -2.7560     0.9120    -0.6960 o          1 060      -0.723500
     16 O5          -2.3570     0.1620     1.2830 o          1 060      -0.723500
@<TRIPOS>BOND
     1     1     3 1   
     2     1     7 1   
     3     1     8 1   
     4     1     9 1   
     5     2     5 1   
     6     2    10 1   
     7     2    14 1   
     8     3     4 1   
     9     4     5 1   
    10     4    11 1   
    11     4    12 1   
    12     5     6 1   
    13     5    13 1   
    14     6    15 1   
    15     6    16 1   
@<TRIPOS>SUBSTRUCTURE
     1 060         1 TEMP              0 ****  ****    0 ROOT
