@<TRIPOS>MOLECULE
061
   58    62     1     0     0
SMALL
bcc


@<TRIPOS>ATOM
      1 N1          -2.5770     0.0560    -3.2510 nc         1 061      -0.360000
      2 N2          -3.7080    -0.6200    -3.0600 nc         1 061      -0.038000
      3 N3          -3.9190    -1.4470    -4.0080 nd         1 061      -0.207800
      4 N4          -2.9070    -1.3160    -4.8450 na         1 061      -0.164400
      5 C5          -2.0700    -0.3860    -4.3790 cd         1 061       0.446000
      6 C6          -0.8510     0.0660    -5.0510 ca         1 061      -0.135500
      7 C7           0.3620     0.1640    -4.3580 cp         1 061       0.017000
      8 C8           1.4660     0.6850    -5.0300 ca         1 061      -0.124000
      9 C9           1.3810     1.0800    -6.3560 ca         1 061      -0.107000
     10 C10          0.1810     0.9570    -7.0410 ca         1 061      -0.128000
     11 C11         -0.9320     0.4550    -6.3870 ca         1 061      -0.111000
     12 C12          0.5170    -0.3100    -2.9660 cp         1 061      -0.038000
     13 C13          1.0200     0.5350    -1.9810 ca         1 061      -0.106500
     14 C14          1.2010     0.0820    -0.6830 ca         1 061      -0.107000
     15 C15          0.8890    -1.2300    -0.3400 ca         1 061      -0.088300
     16 C16          0.3860    -2.0730    -1.3240 ca         1 061      -0.107000
     17 C17          0.2060    -1.6230    -2.6210 ca         1 061      -0.106500
     18 C18          1.1370    -1.7590     1.0480 c3         1 061       0.140300
     19 N19          0.6560    -0.8620     2.0960 n          1 061      -0.408300
     20 C20          1.5070    -0.1290     2.9020 cc         1 061       0.502900
     21 C21          2.9890    -0.2730     2.6950 c3         1 061      -0.113700
     22 C22          3.8320     0.6480     3.5630 c3         1 061      -0.066400
     23 C23          5.3200     0.4660     3.2870 c3         1 061      -0.079400
     24 C24          6.1880     1.3780     4.1420 c3         1 061      -0.088100
     25 N25          1.0850     0.6600     3.8210 nd         1 061      -0.628100
     26 C26         -0.2640     0.7930     4.0270 ca         1 061       0.149400
     27 C27         -0.7270     1.6520     5.0330 ca         1 061      -0.081000
     28 C28         -2.0750     1.8000     5.2600 ca         1 061      -0.187000
     29 C29         -3.0130     1.0950     4.4880 ca         1 061       0.118100
     30 O30         -4.3390     1.2180     4.6850 oh         1 061      -0.489100
     31 C31         -2.5740     0.2450     3.4910 ca         1 061      -0.097000
     32 C32         -1.2050     0.0970     3.2660 ca         1 061      -0.158600
     33 C33         -0.7240    -0.8000     2.2250 c          1 061       0.712100
     34 O34         -1.4470    -1.4670     1.5070 o          1 061      -0.594500
     35 HN4         -2.8420    -1.8890    -5.6760 hn         1 061       0.334700
     36 H8           2.4130     0.7570    -4.5090 ha         1 061       0.141000
     37 H9           2.2550     1.4750    -6.8550 ha         1 061       0.138000
     38 H10          0.1050     1.2580    -8.0770 ha         1 061       0.139000
     39 H11         -1.8770     0.3920    -6.9120 ha         1 061       0.134000
     40 H13          1.2630     1.5620    -2.2250 ha         1 061       0.131500
     41 H14          1.5830     0.7710     0.0600 ha         1 061       0.135000
     42 H16          0.1340    -3.0970    -1.0770 ha         1 061       0.135000
     43 H17         -0.1710    -2.3070    -3.3720 ha         1 061       0.131500
     44 H181         2.2000    -1.9330     1.1920 h1         1 061       0.065700
     45 H182         0.6550    -2.7280     1.1740 h1         1 061       0.065700
     46 H211         3.2320    -0.0920     1.6430 hc         1 061       0.057700
     47 H212         3.2750    -1.3120     2.8900 hc         1 061       0.057700
     48 H221         3.6290     0.4530     4.6190 hc         1 061       0.058200
     49 H222         3.5500     1.6880     3.3820 hc         1 061       0.058200
     50 H231         5.5200     0.6580     2.2280 hc         1 061       0.034200
     51 H232         5.5990    -0.5770     3.4640 hc         1 061       0.034200
     52 H241         7.2480     1.2260     3.9380 hc         1 061       0.033700
     53 H242         5.9630     2.4290     3.9520 hc         1 061       0.033700
     54 H243         6.0270     1.1930     5.2060 hc         1 061       0.033700
     55 H27         -0.0090     2.1980     5.6310 ha         1 061       0.149000
     56 H28         -2.4150     2.4670     6.0450 ha         1 061       0.133000
     57 HOU         -4.5200     1.8330     5.4040 ho         1 061       0.426000
     58 H31         -3.2870    -0.3040     2.8890 ha         1 061       0.173000
@<TRIPOS>BOND
     1     1     2 1   
     2     1     5 2   
     3     2     3 2   
     4     3     4 1   
     5     4     5 1   
     6     4    35 1   
     7     5     6 1   
     8     6     7 ar  
     9     6    11 ar  
    10     7     8 ar  
    11     7    12 1   
    12     8     9 ar  
    13     8    36 1   
    14     9    10 ar  
    15     9    37 1   
    16    10    11 ar  
    17    10    38 1   
    18    11    39 1   
    19    12    13 ar  
    20    12    17 ar  
    21    13    14 ar  
    22    13    40 1   
    23    14    15 ar  
    24    14    41 1   
    25    15    16 ar  
    26    15    18 1   
    27    16    17 ar  
    28    16    42 1   
    29    17    43 1   
    30    18    19 1   
    31    18    44 1   
    32    18    45 1   
    33    19    20 1   
    34    19    33 1   
    35    20    21 1   
    36    20    25 2   
    37    21    22 1   
    38    21    46 1   
    39    21    47 1   
    40    22    23 1   
    41    22    48 1   
    42    22    49 1   
    43    23    24 1   
    44    23    50 1   
    45    23    51 1   
    46    24    52 1   
    47    24    53 1   
    48    24    54 1   
    49    25    26 1   
    50    26    27 ar  
    51    26    32 ar  
    52    27    28 ar  
    53    27    55 1   
    54    28    29 ar  
    55    28    56 1   
    56    29    30 1   
    57    29    31 ar  
    58    30    57 1   
    59    31    32 ar  
    60    31    58 1   
    61    32    33 1   
    62    33    34 2   
@<TRIPOS>SUBSTRUCTURE
     1 061         1 TEMP              0 ****  ****    0 ROOT
