@<TRIPOS>MOLECULE
061
   58    62     1     0     0
SMALL
No Charge or Current Charge


@<TRIPOS>ATOM
      1 N1          -2.4030    -0.6430    -3.5090 nc         1 061      -0.360000
      2 N2          -3.5990    -1.3180    -3.5710 nc         1 061      -0.038000
      3 N3          -3.8590    -1.7510    -4.7740 nd         1 061      -0.207800
      4 N4          -2.7980    -1.3530    -5.5230 na         1 061      -0.214700
      5 C5          -1.9010    -0.6900    -4.7280 cd         1 061       0.446000
      6 C6          -0.6390    -0.0450    -5.1620 ca         1 061      -0.135500
      7 C7           0.4720     0.1910    -4.2930 cp         1 061       0.017000
      8 C8           1.5890     0.9080    -4.7890 ca         1 061      -0.106000
      9 C9           1.6270     1.3810    -6.1080 ca         1 061      -0.089000
     10 C10          0.5400     1.1470    -6.9580 ca         1 061      -0.110000
     11 C11         -0.5820     0.4470    -6.4890 ca         1 061      -0.093000
     12 C12          0.5380    -0.3300    -2.8940 cp         1 061      -0.038000
     13 C13          0.7900     0.5400    -1.8090 ca         1 061      -0.088500
     14 C14          0.8740     0.0530    -0.4930 ca         1 061      -0.089000
     15 C15          0.7140    -1.3240    -0.2300 ca         1 061      -0.088300
     16 C16          0.4770    -2.2010    -1.3060 ca         1 061      -0.089000
     17 C17          0.3940    -1.7110    -2.6210 ca         1 061      -0.088500
     18 C18          0.8030    -1.8900     1.1880 c3         1 061       0.140300
     19 N19          0.4050    -0.9420     2.2690 n          1 061      -0.341300
     20 C20          1.3470    -0.2010     3.0020 cc         1 061       0.502900
     21 C21          2.8290    -0.3590     2.6710 c3         1 061      -0.113700
     22 C22          3.8040     0.6680     3.3120 c3         1 061      -0.066400
     23 C23          5.2710     0.4580     2.8750 c3         1 061      -0.079400
     24 C24          6.2400     1.4740     3.5090 c3         1 061      -0.088100
     25 N25          1.0440     0.6450     3.9940 nd         1 061      -0.628100
     26 C26         -0.3140     0.8030     4.2820 ca         1 061       0.149400
     27 C27         -0.6590     1.6940     5.3180 ca         1 061      -0.063000
     28 C28         -2.0030     1.9140     5.6680 ca         1 061      -0.169000
     29 C29         -3.0200     1.2400     4.9780 ca         1 061       0.118100
     30 O30         -4.3270     1.4440     5.3070 oh         1 061      -0.528100
     31 C31         -2.6880     0.3510     3.9450 ca         1 061      -0.079000
     32 C32         -1.3350     0.1320     3.5980 ca         1 061      -0.158600
     33 C33         -0.9640    -0.8060     2.5140 c          1 061       0.569600
     34 O34         -1.8140    -1.4230     1.8830 o          1 061      -0.519000
     35 HN4         -2.7150    -1.5500    -6.5130 hn         1 061       0.385000
     36 H8           2.4440     1.0820    -4.1400 ha         1 061       0.123000
     37 H9           2.4970     1.9260    -6.4680 ha         1 061       0.120000
     38 H10          0.5620     1.5170    -7.9810 ha         1 061       0.121000
     39 H11         -1.4220     0.3080    -7.1650 ha         1 061       0.116000
     40 H13          0.9150     1.6050    -1.9920 ha         1 061       0.113500
     41 H14          1.0630     0.7560     0.3140 ha         1 061       0.117000
     42 H16          0.3590    -3.2670    -1.1270 ha         1 061       0.117000
     43 H17          0.2190    -2.4060    -3.4380 ha         1 061       0.113500
     44 H181         1.8170    -2.2690     1.3550 h1         1 061       0.065700
     45 H182         0.1590    -2.7780     1.2510 h1         1 061       0.065700
     46 H211         2.9650    -0.2960     1.5860 hc         1 061       0.057700
     47 H212         3.1490    -1.3630     2.9720 hc         1 061       0.057700
     48 H221         3.7450     0.5960     4.4050 hc         1 061       0.058200
     49 H222         3.4920     1.6840     3.0380 hc         1 061       0.058200
     50 H231         5.3400     0.5340     1.7830 hc         1 061       0.034200
     51 H232         5.5890    -0.5560     3.1460 hc         1 061       0.034200
     52 H241         7.2660     1.2850     3.1700 hc         1 061       0.033700
     53 H242         5.9690     2.4980     3.2270 hc         1 061       0.033700
     54 H243         6.2210     1.3980     4.6030 hc         1 061       0.033700
     55 H27          0.1270     2.2200     5.8550 ha         1 061       0.131000
     56 H28         -2.2420     2.6070     6.4710 ha         1 061       0.115000
     57 HOU         -4.3670     2.0910     6.0440 ho         1 061       0.465000
     58 H31         -3.4850    -0.1680     3.4170 ha         1 061       0.155000
@<TRIPOS>BOND
     1     1     2 1   
     2     1     5 2   
     3     2     3 2   
     4     3     4 1   
     5     4     5 1   
     6     4    35 1   
     7     5     6 1   
     8     6     7 ar  
     9     6    11 ar  
    10     7     8 ar  
    11     7    12 1   
    12     8     9 ar  
    13     8    36 1   
    14     9    10 ar  
    15     9    37 1   
    16    10    11 ar  
    17    10    38 1   
    18    11    39 1   
    19    12    13 ar  
    20    12    17 ar  
    21    13    14 ar  
    22    13    40 1   
    23    14    15 ar  
    24    14    41 1   
    25    15    16 ar  
    26    15    18 1   
    27    16    17 ar  
    28    16    42 1   
    29    17    43 1   
    30    18    19 1   
    31    18    44 1   
    32    18    45 1   
    33    19    20 1   
    34    19    33 1   
    35    20    21 1   
    36    20    25 2   
    37    21    22 1   
    38    21    46 1   
    39    21    47 1   
    40    22    23 1   
    41    22    48 1   
    42    22    49 1   
    43    23    24 1   
    44    23    50 1   
    45    23    51 1   
    46    24    52 1   
    47    24    53 1   
    48    24    54 1   
    49    25    26 1   
    50    26    27 ar  
    51    26    32 ar  
    52    27    28 ar  
    53    27    55 1   
    54    28    29 ar  
    55    28    56 1   
    56    29    30 1   
    57    29    31 ar  
    58    30    57 1   
    59    31    32 ar  
    60    31    58 1   
    61    32    33 1   
    62    33    34 2   
@<TRIPOS>SUBSTRUCTURE
     1 061         1 TEMP              0 ****  ****    0 ROOT
