@<TRIPOS>MOLECULE
062
   60    64     1     0     0
SMALL
bcc


@<TRIPOS>ATOM
      1 N1          -4.7090    -0.3620     3.5090 na         1 062       0.232600
      2 C2          -4.9590    -1.2000     2.4700 ca         1 062      -0.163300
      3 C3          -4.4440    -0.9200     1.2270 cp         1 062       0.011000
      4 C4          -3.6630     0.2100     1.0170 ca         1 062      -0.130300
      5 C5          -3.4160     1.0540     2.0760 ca         1 062      -0.066000
      6 C6          -3.9530     0.7460     3.3110 ca         1 062      -0.186300
      7 C10         -4.5780    -1.6420    -0.0370 cp         1 062      -0.027000
      8 C11         -3.8920    -0.9290    -1.0220 ca         1 062      -0.070300
      9 C12         -3.2420     0.3150    -0.4370 c5         1 062       0.195400
     10 C13         -5.2450    -2.8160    -0.3440 ca         1 062      -0.094000
     11 C14         -5.2190    -3.2660    -1.6590 ca         1 062      -0.119000
     12 C15         -4.5410    -2.5530    -2.6410 ca         1 062      -0.121000
     13 C16         -3.8680    -1.3750    -2.3280 ca         1 062      -0.094000
     14 O21         -3.7670     1.4460    -1.0670 oh         1 062      -0.569800
     15 C22         -1.7120     0.1420    -0.5170 c          1 062       0.656100
     16 N23         -0.9990     0.7330    -1.4840 n          1 062      -0.462800
     17 C24          0.4470     0.5640    -1.4400 c5         1 062       0.021700
     18 C25          0.9530     1.3970    -2.6250 c5         1 062      -0.086400
     19 C26         -0.2280     1.3910    -3.5840 c5         1 062      -0.097400
     20 C27         -1.4240     1.5100    -2.6530 c5         1 062       0.117000
     21 C34          1.0190     1.0880    -0.1300 c          1 062       0.675100
     22 N36          2.0960     0.4200     0.3070 ns         1 062      -0.563900
     23 C37          2.8740     0.8010     1.4660 c3         1 062       0.143300
     24 C38          4.3520     0.6750     1.1990 ca         1 062      -0.107300
     25 C41          5.0720    -0.2770     1.9110 ca         1 062      -0.114000
     26 C42          6.4320    -0.4270     1.6960 ca         1 062       0.025400
     27 C43          7.0920     0.3600     0.7720 ca         1 062      -0.117000
     28 C44          6.3690     1.3090     0.0630 ca         1 062      -0.106000
     29 C45          5.0030     1.4850     0.2580 ca         1 062      -0.065300
     30 CL1          7.3120    -1.6190     2.6000 cl         1 062      -0.110400
     31 C53          4.2450     2.5190    -0.5400 c3         1 062       0.192100
     32 N54          5.1160     3.5280    -1.1130 n8         1 062      -0.892800
     33 O60         -5.1810    -0.6180     4.6610 o          1 062      -0.328000
     34 O63         -1.1780    -0.5700     0.3230 o          1 062      -0.590100
     35 O64          0.5670     2.0860     0.4060 o          1 062      -0.608100
     36 H2          -5.5660    -2.0630     2.7030 h4         1 062       0.189000
     37 H5          -2.8080     1.9450     1.9900 ha         1 062       0.160000
     38 H6          -3.8010     1.3600     4.1860 h4         1 062       0.187000
     39 H13         -5.7790    -3.3740     0.4150 ha         1 062       0.142000
     40 H14         -5.7330    -4.1820    -1.9210 ha         1 062       0.137000
     41 H15         -4.5340    -2.9170    -3.6600 ha         1 062       0.135000
     42 H16         -3.3400    -0.8340    -3.1020 ha         1 062       0.137000
     43 H21         -3.4320     2.2450    -0.6440 ho         1 062       0.421000
     44 H24          0.7050    -0.4910    -1.5810 h1         1 062       0.071700
     45 H251         1.1660     2.4200    -2.3060 hc         1 062       0.062200
     46 H252         1.8640     0.9790    -3.0490 hc         1 062       0.062200
     47 H261        -0.1930     2.2050    -4.3060 hc         1 062       0.058700
     48 H262        -0.2700     0.4500    -4.1380 hc         1 062       0.058700
     49 H271        -1.5990     2.5540    -2.3840 h1         1 062       0.059200
     50 H272        -2.3330     1.1170    -3.1000 h1         1 062       0.059200
     51 H36          2.3450    -0.4450    -0.1480 hn         1 062       0.320500
     52 H371         2.6020     0.1820     2.3240 h1         1 062       0.066200
     53 H372         2.6170     1.8290     1.7240 h1         1 062       0.066200
     54 H41          4.5650    -0.9010     2.6380 ha         1 062       0.148000
     55 H43          8.1540     0.2420     0.6010 ha         1 062       0.149000
     56 H44          6.8820     1.9320    -0.6560 ha         1 062       0.158000
     57 H531         3.4470     2.9410     0.0850 h1         1 062       0.042200
     58 H532         3.7350     2.0100    -1.3640 h1         1 062       0.042200
     59 H541         4.5760     4.1100    -1.7400 hn         1 062       0.344300
     60 H542         5.4500     4.1430    -0.3820 hn         1 062       0.344300
@<TRIPOS>BOND
     1     1     2 1   
     2     1     6 2   
     3     1    33 1   
     4     2     3 ar  
     5     2    36 1   
     6     3     4 ar  
     7     3     7 1   
     8     4     5 ar  
     9     4     9 1   
    10     5     6 ar  
    11     5    37 1   
    12     6    38 1   
    13     7     8 ar  
    14     7    10 ar  
    15     8     9 1   
    16     8    13 ar  
    17     9    14 1   
    18     9    15 1   
    19    10    11 ar  
    20    10    39 1   
    21    11    12 ar  
    22    11    40 1   
    23    12    13 ar  
    24    12    41 1   
    25    13    42 1   
    26    14    43 1   
    27    15    16 1   
    28    15    34 2   
    29    16    17 1   
    30    16    20 1   
    31    17    18 1   
    32    17    21 1   
    33    17    44 1   
    34    18    19 1   
    35    18    45 1   
    36    18    46 1   
    37    19    20 1   
    38    19    47 1   
    39    19    48 1   
    40    20    49 1   
    41    20    50 1   
    42    21    22 1   
    43    21    35 2   
    44    22    23 1   
    45    22    51 1   
    46    23    24 1   
    47    23    52 1   
    48    23    53 1   
    49    24    25 ar  
    50    24    29 ar  
    51    25    26 ar  
    52    25    54 1   
    53    26    27 ar  
    54    26    30 1   
    55    27    28 ar  
    56    27    55 1   
    57    28    29 ar  
    58    28    56 1   
    59    29    31 1   
    60    31    32 1   
    61    31    57 1   
    62    31    58 1   
    63    32    59 1   
    64    32    60 1   
@<TRIPOS>SUBSTRUCTURE
     1 062         1 TEMP              0 ****  ****    0 ROOT
