@<TRIPOS>MOLECULE
062
   60    64     1     0     0
SMALL
No Charge or Current Charge


@<TRIPOS>ATOM
      1 N1          -4.7820    -0.0510     3.5030 na         1 062       0.473300
      2 C2          -5.2720    -0.9250     2.5190 ca         1 062      -0.196000
      3 C3          -4.7050    -0.7730     1.2290 cp         1 062       0.011000
      4 C4          -3.7230     0.1820     0.9560 ca         1 062      -0.130300
      5 C5          -3.2320     1.0350     1.9470 ca         1 062      -0.048000
      6 C6          -3.7860     0.8950     3.2300 ca         1 062      -0.168300
      7 C10         -5.0070    -1.5340     0.0190 cp         1 062      -0.027000
      8 C11         -4.2310    -1.0890    -1.0570 ca         1 062      -0.070300
      9 C12         -3.3370     0.0530    -0.5300 c5         1 062       0.218600
     10 C13         -5.9280    -2.5870    -0.1620 ca         1 062      -0.076000
     11 C14         -6.0500    -3.1750    -1.4380 ca         1 062      -0.101000
     12 C15         -5.2630    -2.7130    -2.5170 ca         1 062      -0.103000
     13 C16         -4.3430    -1.6600    -2.3340 ca         1 062      -0.076000
     14 O21         -3.6830     1.2920    -1.1760 oh         1 062      -0.632000
     15 C22         -1.7900    -0.3530    -0.6180 c          1 062       0.589100
     16 N23         -0.9920     0.4190    -1.5100 n          1 062      -0.395800
     17 C24          0.4940     0.4180    -1.3770 c5         1 062       0.021700
     18 C25          0.9020     1.3440    -2.5580 c5         1 062      -0.086400
     19 C26         -0.0750     0.8580    -3.6520 c5         1 062      -0.097400
     20 C27         -1.4180     0.8170    -2.8780 c5         1 062       0.117000
     21 C34          1.0280     1.0260    -0.0410 c          1 062       0.608100
     22 N36          2.3570     0.7020     0.1090 ns         1 062      -0.496900
     23 C37          3.1790     1.1180     1.2410 c3         1 062       0.143300
     24 C38          4.6580     0.8740     0.9610 ca         1 062      -0.107300
     25 C41          5.2550    -0.3000     1.4650 ca         1 062      -0.096000
     26 C42          6.6110    -0.5720     1.2290 ca         1 062       0.117000
     27 C43          7.3880     0.3270     0.4850 ca         1 062      -0.099000
     28 C44          6.8050     1.4980    -0.0250 ca         1 062      -0.088000
     29 C45          5.4430     1.7850     0.2020 ca         1 062      -0.065300
     30 Cl1          7.3370    -2.0410     1.8670 cl         1 062      -0.202000
     31 C53          4.8640     3.0720    -0.3890 c3         1 062       0.192100
     32 N54          5.1190     4.2350     0.4840 n8         1 062      -1.003200
     33 O60         -5.2430    -0.1240     4.6490 o          1 062      -0.518000
     34 O63         -1.2570    -1.1950     0.1010 o          1 062      -0.590100
     35 O64          0.4020     1.6830     0.7830 o          1 062      -0.608100
     36 H2          -6.0350    -1.6540     2.7800 h4         1 062       0.171000
     37 H5          -2.4530     1.7670     1.7410 ha         1 062       0.142000
     38 H6          -3.4600     1.5160     4.0620 h4         1 062       0.169000
     39 H13         -6.5350    -2.9400     0.6680 ha         1 062       0.124000
     40 H14         -6.7570    -3.9880    -1.5920 ha         1 062       0.119000
     41 H15         -5.3690    -3.1730    -3.4970 ha         1 062       0.117000
     42 H16         -3.7450    -1.3060    -3.1670 ha         1 062       0.119000
     43 H21         -3.1740     1.9960    -0.7200 ho         1 062       0.460000
     44 H24          0.8940    -0.5970    -1.4990 h1         1 062       0.071700
     45 H251         0.7400     2.4030    -2.3220 hc         1 062       0.062200
     46 H252         1.9530     1.2260    -2.8460 hc         1 062       0.062200
     47 H261        -0.1130     1.5270    -4.5200 hc         1 062       0.058700
     48 H262         0.2010    -0.1390    -4.0180 hc         1 062       0.058700
     49 H271        -1.8790     1.8130    -2.8710 h1         1 062       0.059200
     50 H272        -2.1210     0.1090    -3.3310 h1         1 062       0.059200
     51 H36          2.7880     0.1470    -0.6210 hn         1 062       0.320500
     52 H371         2.8680     0.5500     2.1280 h1         1 062       0.066200
     53 H372         3.0020     2.1810     1.4530 h1         1 062       0.066200
     54 H41          4.6650    -1.0090     2.0420 ha         1 062       0.130000
     55 H43          8.4390     0.1160     0.3040 ha         1 062       0.131000
     56 H44          7.4160     2.1910    -0.6010 ha         1 062       0.140000
     57 H531         3.7820     2.9760    -0.5540 h1         1 062       0.042200
     58 H532         5.3260     3.2620    -1.3680 h1         1 062       0.042200
     59 H541         4.6510     5.0590     0.0880 hn         1 062       0.399500
     60 H542         4.6420     4.0880     1.3800 hn         1 062       0.399500
@<TRIPOS>BOND
     1     1     2 1   
     2     1     6 2   
     3     1    33 1   
     4     2     3 ar  
     5     2    36 1   
     6     3     4 ar  
     7     3     7 1   
     8     4     5 ar  
     9     4     9 1   
    10     5     6 ar  
    11     5    37 1   
    12     6    38 1   
    13     7     8 ar  
    14     7    10 ar  
    15     8     9 1   
    16     8    13 ar  
    17     9    14 1   
    18     9    15 1   
    19    10    11 ar  
    20    10    39 1   
    21    11    12 ar  
    22    11    40 1   
    23    12    13 ar  
    24    12    41 1   
    25    13    42 1   
    26    14    43 1   
    27    15    16 1   
    28    15    34 2   
    29    16    17 1   
    30    16    20 1   
    31    17    18 1   
    32    17    21 1   
    33    17    44 1   
    34    18    19 1   
    35    18    45 1   
    36    18    46 1   
    37    19    20 1   
    38    19    47 1   
    39    19    48 1   
    40    20    49 1   
    41    20    50 1   
    42    21    22 1   
    43    21    35 2   
    44    22    23 1   
    45    22    51 1   
    46    23    24 1   
    47    23    52 1   
    48    23    53 1   
    49    24    25 ar  
    50    24    29 ar  
    51    25    26 ar  
    52    25    54 1   
    53    26    27 ar  
    54    26    30 1   
    55    27    28 ar  
    56    27    55 1   
    57    28    29 ar  
    58    28    56 1   
    59    29    31 1   
    60    31    32 1   
    61    31    57 1   
    62    31    58 1   
    63    32    59 1   
    64    32    60 1   
@<TRIPOS>SUBSTRUCTURE
     1 062         1 TEMP              0 ****  ****    0 ROOT
