@<TRIPOS>MOLECULE
063
  144   148     1     0     0
SMALL
No Charge or Current Charge


@<TRIPOS>ATOM
      1 N1          34.4720    23.0120    29.5670 n7         1 063      -0.867400
      2 N2          38.3420    23.3900    27.0330 ns         1 063      -0.464400
      3 O3          36.6080    23.3510    25.5510 o          1 063      -0.585100
      4 N4          40.5770    23.9240    26.7760 nc         1 063      -0.707000
      5 S5          39.1440    24.7720    24.7450 ss         1 063       0.045600
      6 O6          37.3480    27.9450    27.2460 os         1 063      -0.240200
      7 O7          37.9290    28.5060    29.9290 os         1 063      -0.308100
      8 F8          40.3850    30.2230    24.3980 f          1 063      -0.171000
      9 O9          40.7730    28.1610    30.5600 os         1 063      -0.436000
     10 O10         47.2300    30.9000    24.2380 o          1 063      -0.719500
     11 O11         47.6390    28.7910    24.2570 o          1 063      -0.719500
     12 N14         44.3230    38.0280    34.0150 ne         1 063      -0.824100
     13 N15         43.1790    37.0530    32.1910 ns         1 063      -0.469400
     14 N16         42.5430    31.8700    32.0220 ns         1 063      -0.525900
     15 C17         35.2840    22.9020    30.8000 c6         1 063       0.159800
     16 C18         35.1590    23.6510    28.4200 c6         1 063       0.260500
     17 C19         35.8820    24.9590    28.8490 ca         1 063      -0.146300
     18 C20         36.1550    25.2360    30.2110 ca         1 063      -0.043300
     19 C21         35.6780    24.2950    31.3160 c6         1 063      -0.074100
     20 C22         36.2910    25.9050    27.8790 ca         1 063      -0.077000
     21 C23         36.9810    27.0690    28.2440 ca         1 063       0.077100
     22 C24         37.2610    27.3370    29.6000 ca         1 063       0.139100
     23 C25         36.8300    26.4160    30.5790 ca         1 063      -0.201000
     24 C26         36.1580    22.6120    27.8060 c3         1 063      -0.139400
     25 C27         34.0170    23.9470    27.3990 c3         1 063      -0.094100
     26 C28         37.0340    23.1660    26.6800 c          1 063       0.605100
     27 C29         39.3480    23.9470    26.2970 cd         1 063       0.520300
     28 C30         41.4360    24.5520    25.9080 cc         1 063       0.304900
     29 C31         40.8710    25.0680    24.7720 cd         1 063      -0.297000
     30 C32         38.6540    28.1500    26.8530 ca         1 063       0.137100
     31 C33         39.7340    27.4530    27.4280 ca         1 063      -0.193000
     32 C34         41.0480    27.7160    27.0030 ca         1 063      -0.062000
     33 C35         41.3160    28.6670    25.9880 cp         1 063      -0.050000
     34 C36         40.2060    29.3320    25.4000 ca         1 063       0.199000
     35 C37         38.8960    29.0780    25.8320 ca         1 063      -0.184000
     36 C38         42.7290    28.9450    25.5750 cp         1 063      -0.097000
     37 C39         38.5100    28.7510    31.2290 c3         1 063       0.157600
     38 C40         39.7110    27.8000    31.4670 c3         1 063       0.126600
     39 C41         41.9880    27.3830    30.6570 c3         1 063       0.123600
     40 C42         43.1960    30.2670    25.3870 ca         1 063      -0.121500
     41 C43         44.5260    30.5250    25.0120 ca         1 063      -0.090000
     42 C44         45.4400    29.4640    24.8140 ca         1 063      -0.120600
     43 C45         44.9810    28.1410    25.0090 ca         1 063      -0.090000
     44 C46         43.6510    27.8890    25.3860 ca         1 063      -0.121500
     45 C47         46.8800    29.7390    24.4060 c          1 063       0.713600
     46 C48         42.7280    27.7280    31.9720 c3         1 063       0.067000
     47 N49         42.8390    29.1790    32.1570 ns         1 063      -0.502900
     48 C50         43.9700    29.8630    32.5540 c          1 063       0.579100
     49 C51         43.8530    31.4210    32.5640 c3         1 063       0.039700
     50 C52         44.1130    32.0180    33.9750 c3         1 063      -0.076400
     51 C53         44.7310    33.4390    33.9750 c3         1 063      -0.101400
     52 C54         43.8130    34.5470    33.4270 c3         1 063       0.234800
     53 C55         43.8640    37.0350    33.3680 c2         1 063       0.808800
     54 O56         41.2460    36.6160    33.2330 os         1 063      -0.474100
     55 C57         39.8710    36.1890    33.3500 c3         1 063       0.224000
     56 C58         38.9220    37.2640    32.7590 c3         1 063      -0.109433
     57 C59         39.7160    34.8060    32.6730 c3         1 063      -0.109433
     58 C60         39.6430    36.0620    34.8720 c3         1 063      -0.109433
     59 C61         41.8540    36.8410    32.0240 c          1 063       0.658100
     60 O62         41.3250    36.8460    30.9280 o          1 063      -0.505000
     61 O63         42.6730    39.4890    34.3990 os         1 063      -0.431100
     62 C64         41.8750    40.6820    34.2290 c3         1 063       0.215000
     63 C65         42.6980    41.9280    34.6480 c3         1 063      -0.106100
     64 C66         40.6880    40.4870    35.1990 c3         1 063      -0.106100
     65 C67         41.3580    40.7580    32.7680 c3         1 063      -0.106100
     66 C68         43.8200    39.2580    33.6910 c          1 063       0.773500
     67 O69         44.3390    40.0130    32.8880 o          1 063      -0.586000
     68 O70         40.9600    32.3130    30.5370 os         1 063      -0.492100
     69 C71         40.3550    32.4800    29.2310 c3         1 063       0.226000
     70 C72         40.5940    31.2100    28.3770 c3         1 063      -0.111100
     71 C73         40.9050    33.7670    28.5640 c3         1 063      -0.111100
     72 C74         38.8430    32.6330    29.5100 c3         1 063      -0.111100
     73 O76         43.1600    32.0980    29.8320 o          1 063      -0.501000
     74 H1          33.6560    23.5920    29.7920 hn         1 063       0.418000
     75 H3          38.5850    23.1020    27.9680 hn         1 063       0.338500
     76 H5          45.1970    35.9280    34.2510 hn         1 063       0.509000
     77 H6          43.7210    37.2010    31.3600 hn         1 063       0.380500
     78 H7          41.7390    31.9230    32.6350 hn         1 063       0.309500
     79 H8          34.7070    22.3780    31.5770 h1         1 063       0.052700
     80 H9          36.1890    22.3050    30.6200 h1         1 063       0.052700
     81 H10         34.8120    24.7510    31.8150 hc         1 063       0.052200
     82 H11         36.4540    24.1890    32.0860 hc         1 063       0.052200
     83 H12         36.0910    25.7470    26.8230 ha         1 063       0.144000
     84 H13         37.0010    26.6040    31.6340 ha         1 063       0.112000
     85 H14         35.5930    21.7630    27.4090 hc         1 063       0.071200
     86 H15         36.8250    22.2470    28.5920 hc         1 063       0.071200
     87 H16         33.3050    24.6740    27.8070 hc         1 063       0.049700
     88 H17         34.3830    24.3560    26.4530 hc         1 063       0.049700
     89 H18         33.4540    23.0380    27.1550 hc         1 063       0.049700
     90 H19         42.4850    24.6000    26.1740 h4         1 063       0.051100
     91 H20         41.3590    25.6020    23.9670 h4         1 063       0.165000
     92 H21         39.5740    26.7190    28.2110 ha         1 063       0.115000
     93 H22         41.8710    27.1870    27.4750 ha         1 063       0.124000
     94 H23         38.0650    29.6060    25.3730 ha         1 063       0.132000
     95 H24         38.8730    29.7850    31.2890 h1         1 063       0.059200
     96 H25         37.7660    28.6240    32.0240 h1         1 063       0.059200
     97 H26         40.0360    27.9130    32.5090 h1         1 063       0.024200
     98 H27         39.4100    26.7560    31.3180 h1         1 063       0.024200
     99 H28         41.7780    26.3060    30.6140 h1         1 063       0.074200
    100 H29         42.6490    27.6270    29.8150 h1         1 063       0.074200
    101 H30         42.5240    31.1070    25.5460 ha         1 063       0.095000
    102 H31         44.8450    31.5560    24.8780 ha         1 063       0.130500
    103 H32         45.6570    27.3000    24.8680 ha         1 063       0.130500
    104 H33         43.3290    26.8610    25.5220 ha         1 063       0.095000
    105 H34         42.1910    27.3000    32.8280 h1         1 063       0.055700
    106 H35         43.7280    27.2750    31.9440 h1         1 063       0.055700
    107 H36         42.0490    29.7490    31.8780 hn         1 063       0.306500
    108 H37         44.6510    31.7620    31.8910 h1         1 063       0.120700
    109 H38         43.1890    32.0050    34.5650 hc         1 063       0.053700
    110 H39         44.8180    31.3670    34.5070 hc         1 063       0.053700
    111 H40         45.0050    33.6900    35.0070 hc         1 063       0.056700
    112 H41         45.6640    33.4250    33.3970 hc         1 063       0.056700
    113 H42         43.5580    34.3360    32.3800 h1         1 063       0.059700
    114 H43         42.8800    34.5570    34.0090 h1         1 063       0.059700
    115 H44         37.8850    37.0550    33.0480 hc         1 063       0.050811
    116 H45         39.1800    38.2610    33.1320 hc         1 063       0.050811
    117 H46         38.9520    37.2830    31.6650 hc         1 063       0.050811
    118 H47         38.7250    34.3850    32.8810 hc         1 063       0.050811
    119 H48         39.8210    34.8780    31.5860 hc         1 063       0.050811
    120 H49         40.4690    34.1020    33.0440 hc         1 063       0.050811
    121 H50         38.6220    35.7240    35.0870 hc         1 063       0.050811
    122 H51         40.3400    35.3370    35.3110 hc         1 063       0.050811
    123 H52         39.7950    37.0260    35.3700 hc         1 063       0.050811
    124 H53         43.4670    42.1800    33.9100 hc         1 063       0.046589
    125 H54         42.0440    42.8030    34.7430 hc         1 063       0.046589
    126 H55         43.1870    41.7650    35.6160 hc         1 063       0.046589
    127 H56         41.0410    40.3990    36.2340 hc         1 063       0.046589
    128 H57         39.9980    41.3370    35.1470 hc         1 063       0.046589
    129 H58         40.1280    39.5780    34.9530 hc         1 063       0.046589
    130 H59         42.1480    41.0550    32.0690 hc         1 063       0.046589
    131 H60         40.9580    39.7910    32.4430 hc         1 063       0.046589
    132 H61         40.5570    41.5020    32.6840 hc         1 063       0.046589
    133 H62         40.3030    30.3080    28.9280 hc         1 063       0.051367
    134 H63         39.9900    31.2560    27.4650 hc         1 063       0.051367
    135 H64         41.6390    31.1060    28.0680 hc         1 063       0.051367
    136 H65         40.8730    34.6110    29.2620 hc         1 063       0.051367
    137 H66         41.9370    33.6410    28.2190 hc         1 063       0.051367
    138 H67         40.3010    34.0300    27.6880 hc         1 063       0.051367
    139 H68         38.6390    33.5220    30.1160 hc         1 063       0.051367
    140 H69         38.2830    32.7320    28.5720 hc         1 063       0.051367
    141 H70         38.4530    31.7590    30.0430 hc         1 063       0.051367
    142 O12         44.9990    29.2780    32.8650 o          1 063      -0.555100
    143 N13         44.4880    35.8480    33.5300 nu         1 063      -0.881400
    144 C75         42.3020    32.1070    30.6970 c          1 063       0.641100
@<TRIPOS>BOND
     1     1    15 1   
     2     1    16 1   
     3     1    74 1   
     4     2    26 1   
     5     2    27 1   
     6     2    75 1   
     7     3    26 2   
     8     4    27 2   
     9     4    28 1   
    10     5    27 1   
    11     5    29 1   
    12     6    21 1   
    13     6    30 1   
    14     7    22 1   
    15     7    37 1   
    16     8    34 1   
    17     9    38 1   
    18     9    39 1   
    19    10    45 1   
    20    11    45 1   
    21    12    53 2   
    22    12    66 1   
    23    13    53 1   
    24    13    59 1   
    25    13    77 1   
    26    14    49 1   
    27    14    78 1   
    28    14   144 1   
    29    15    19 1   
    30    15    79 1   
    31    15    80 1   
    32    16    17 1   
    33    16    24 1   
    34    16    25 1   
    35    17    18 ar  
    36    17    20 ar  
    37    18    19 1   
    38    18    23 ar  
    39    19    81 1   
    40    19    82 1   
    41    20    21 ar  
    42    20    83 1   
    43    21    22 ar  
    44    22    23 ar  
    45    23    84 1   
    46    24    26 1   
    47    24    85 1   
    48    24    86 1   
    49    25    87 1   
    50    25    88 1   
    51    25    89 1   
    52    28    29 2   
    53    28    90 1   
    54    29    91 1   
    55    30    31 ar  
    56    30    35 ar  
    57    31    32 ar  
    58    31    92 1   
    59    32    33 ar  
    60    32    93 1   
    61    33    34 ar  
    62    33    36 1   
    63    34    35 ar  
    64    35    94 1   
    65    36    40 ar  
    66    36    44 ar  
    67    37    38 1   
    68    37    95 1   
    69    37    96 1   
    70    38    97 1   
    71    38    98 1   
    72    39    46 1   
    73    39    99 1   
    74    39   100 1   
    75    40    41 ar  
    76    40   101 1   
    77    41    42 ar  
    78    41   102 1   
    79    42    43 ar  
    80    42    45 1   
    81    43    44 ar  
    82    43   103 1   
    83    44   104 1   
    84    46    47 1   
    85    46   105 1   
    86    46   106 1   
    87    47    48 1   
    88    47   107 1   
    89    48    49 1   
    90    48   142 2   
    91    49    50 1   
    92    49   108 1   
    93    50    51 1   
    94    50   109 1   
    95    50   110 1   
    96    51    52 1   
    97    51   111 1   
    98    51   112 1   
    99    52   113 1   
   100    52   114 1   
   101    52   143 1   
   102    53   143 1   
   103    54    55 1   
   104    54    59 1   
   105    55    56 1   
   106    55    57 1   
   107    55    58 1   
   108    56   115 1   
   109    56   116 1   
   110    56   117 1   
   111    57   118 1   
   112    57   119 1   
   113    57   120 1   
   114    58   121 1   
   115    58   122 1   
   116    58   123 1   
   117    59    60 2   
   118    61    62 1   
   119    61    66 1   
   120    62    63 1   
   121    62    64 1   
   122    62    65 1   
   123    63   124 1   
   124    63   125 1   
   125    63   126 1   
   126    64   127 1   
   127    64   128 1   
   128    64   129 1   
   129    65   130 1   
   130    65   131 1   
   131    65   132 1   
   132    66    67 2   
   133    68    69 1   
   134    68   144 1   
   135    69    70 1   
   136    69    71 1   
   137    69    72 1   
   138    70   133 1   
   139    70   134 1   
   140    70   135 1   
   141    71   136 1   
   142    71   137 1   
   143    71   138 1   
   144    72   139 1   
   145    72   140 1   
   146    72   141 1   
   147    73   144 2   
   148    76   143 1   
@<TRIPOS>SUBSTRUCTURE
     1 063         1 TEMP              0 ****  ****    0 ROOT
