@<TRIPOS>MOLECULE
063
  144   148     1     0     0
SMALL
abcg2


@<TRIPOS>ATOM
      1 N1          35.2770    21.7970    28.8500 n7         1 063      -0.867400
      2 N2          39.1130    22.8710    26.5630 ns         1 063      -0.464400
      3 O3          37.4670    22.7850    25.0420 o          1 063      -0.585100
      4 N4          41.2450    23.7250    26.1750 nc         1 063      -0.707000
      5 S5          39.6720    24.0870    24.1800 ss         1 063       0.045600
      6 O6          37.3460    27.2510    26.9760 os         1 063      -0.240200
      7 O7          37.4880    27.7970    29.5790 os         1 063      -0.308100
      8 F8          40.4940    30.4460    25.6830 f          1 063      -0.171000
      9 O9          40.1540    28.4020    30.4590 os         1 063      -0.436000
     10 O10         47.1430    31.1960    27.1470 o          1 063      -0.719500
     11 O11         47.6630    29.4590    25.8450 o          1 063      -0.719500
     12 N14         43.9650    38.2100    33.7470 ne         1 063      -0.824100
     13 N15         42.2650    37.3260    32.3350 ns         1 063      -0.469400
     14 N16         41.6360    32.3640    31.9020 ns         1 063      -0.525900
     15 C17         35.9900    21.8390    30.1120 c6         1 063       0.159800
     16 C18         35.8380    22.6430    27.7990 c6         1 063       0.260500
     17 C19         36.3010    24.0030    28.3220 ca         1 063      -0.146300
     18 C20         36.4010    24.2660    29.6870 ca         1 063      -0.043300
     19 C21         36.0290    23.2320    30.7140 c6         1 063      -0.074100
     20 C22         36.6330    25.0310    27.4350 ca         1 063      -0.077000
     21 C23         37.0400    26.2670    27.8820 ca         1 063       0.077100
     22 C24         37.1270    26.5440    29.2520 ca         1 063       0.139100
     23 C25         36.8130    25.5240    30.1350 ca         1 063      -0.201000
     24 C26         37.0220    21.8280    27.2060 c3         1 063      -0.139400
     25 C27         34.7370    22.8190    26.7530 c3         1 063      -0.094100
     26 C28         37.8550    22.5310    26.1700 c          1 063       0.605100
     27 C29         40.0360    23.5070    25.7680 cd         1 063       0.520300
     28 C30         41.9590    24.3840    25.2150 cc         1 063       0.304900
     29 C31         41.2890    24.6720    24.0750 cd         1 063      -0.297000
     30 C32         38.6580    27.5850    26.8450 ca         1 063       0.137100
     31 C33         39.6970    26.7320    27.1950 ca         1 063      -0.193000
     32 C34         41.0050    27.1680    27.0580 ca         1 063      -0.062000
     33 C35         41.3200    28.4360    26.5790 cp         1 063      -0.050000
     34 C36         40.2480    29.2300    26.1950 ca         1 063       0.199000
     35 C37         38.9310    28.8400    26.3170 ca         1 063      -0.184000
     36 C38         42.7200    28.9010    26.5190 cp         1 063      -0.097000
     37 C39         37.8460    28.1110    30.9150 c3         1 063       0.157600
     38 C40         39.2530    27.6780    31.2590 c3         1 063       0.126600
     39 C41         41.4790    27.9300    30.4770 c3         1 063       0.123600
     40 C42         43.1160    30.0550    27.1930 ca         1 063      -0.121500
     41 C43         44.4430    30.4540    27.1880 ca         1 063      -0.090000
     42 C44         45.4130    29.7240    26.5050 ca         1 063      -0.120600
     43 C45         45.0120    28.5720    25.8330 ca         1 063      -0.090000
     44 C46         43.6870    28.1620    25.8410 ca         1 063      -0.121500
     45 C47         46.8730    30.1670    26.4980 c          1 063       0.713600
     46 C48         42.2220    28.2560    31.7650 c3         1 063       0.067000
     47 N49         42.2360    29.6730    32.0420 ns         1 063      -0.502900
     48 C50         43.2510    30.4920    31.7300 c          1 063       0.579100
     49 C51         43.0190    31.9770    32.0430 c3         1 063       0.039700
     50 C52         43.5410    32.2960    33.4480 c3         1 063      -0.076400
     51 C53         43.9600    33.7470    33.6650 c3         1 063      -0.101400
     52 C54         42.8260    34.7620    33.5940 c3         1 063       0.234800
     53 C55         43.1860    37.2330    33.3690 c2         1 063       0.808800
     54 O56         40.5550    36.6650    33.6110 os         1 063      -0.474100
     55 C57         39.1910    36.2740    33.9610 c3         1 063       0.224000
     56 C58         38.2680    37.4840    33.9250 c3         1 063      -0.109433
     57 C59         38.7020    35.1520    33.0590 c3         1 063      -0.109433
     58 C60         39.3370    35.7710    35.3900 c3         1 063      -0.109433
     59 C61         40.9030    37.0900    32.4170 c          1 063       0.658100
     60 O62         40.1790    37.3000    31.4750 o          1 063      -0.505000
     61 O63         44.5070    40.3210    33.9410 os         1 063      -0.431100
     62 C64         44.6650    41.7180    33.5880 c3         1 063       0.215000
     63 C65         45.5480    41.8880    32.3570 c3         1 063      -0.106100
     64 C66         45.3710    42.3030    34.8060 c3         1 063      -0.106100
     65 C67         43.3100    42.3960    33.4120 c3         1 063      -0.106100
     66 C68         43.9380    39.4260    33.1390 c          1 063       0.773500
     67 O69         43.5170    39.6910    32.0220 o          1 063      -0.586000
     68 O70         39.7410    32.5460    30.7840 os         1 063      -0.492100
     69 C71         38.8740    32.7320    29.6300 c3         1 063       0.226000
     70 C72         38.9650    31.5670    28.6510 c3         1 063      -0.111100
     71 C73         39.1820    34.0600    28.9510 c3         1 063      -0.111100
     72 C74         37.4830    32.7630    30.2490 c3         1 063      -0.111100
     73 O76         41.6810    32.2620    29.6460 o          1 063      -0.501000
     74 H1          34.3130    22.0690    29.0090 hn         1 063       0.418000
     75 H3          39.4300    22.6410    27.4950 hn         1 063       0.338500
     76 H5          43.9420    36.0930    34.7850 hn         1 063       0.509000
     77 H6          42.5110    38.0380    31.6530 hn         1 063       0.380500
     78 H7          41.0550    32.4320    32.7240 hn         1 063       0.309500
     79 H8          35.5130    21.1410    30.8020 h1         1 063       0.052700
     80 H9          37.0080    21.4700    29.9650 h1         1 063       0.052700
     81 H10         35.0440    23.4800    31.1250 hc         1 063       0.052200
     82 H11         36.7250    23.2690    31.5560 hc         1 063       0.052200
     83 H12         36.5720    24.8890    26.3630 ha         1 063       0.144000
     84 H13         36.8710    25.6820    31.2050 ha         1 063       0.112000
     85 H14         36.6040    20.9350    26.7380 hc         1 063       0.071200
     86 H15         37.6610    21.4900    28.0230 hc         1 063       0.071200
     87 H16         33.8970    23.3690    27.1790 hc         1 063       0.049700
     88 H17         35.0720    23.3580    25.8700 hc         1 063       0.049700
     89 H18         34.3780    21.8410    26.4290 hc         1 063       0.049700
     90 H19         42.9920    24.6380    25.4060 h4         1 063       0.051100
     91 H20         41.6510    25.1750    23.1930 h4         1 063       0.165000
     92 H21         39.5040    25.7480    27.5990 ha         1 063       0.115000
     93 H22         41.8080    26.5120    27.3660 ha         1 063       0.124000
     94 H23         38.1300    29.5080    26.0230 ha         1 063       0.132000
     95 H24         37.7650    29.1970    30.9880 h1         1 063       0.059200
     96 H25         37.1420    27.6890    31.6360 h1         1 063       0.059200
     97 H26         39.4040    27.8680    32.3300 h1         1 063       0.024200
     98 H27         39.3750    26.5960    31.1080 h1         1 063       0.024200
     99 H28         41.5160    26.8450    30.3090 h1         1 063       0.074200
    100 H29         41.9870    28.4080    29.6360 h1         1 063       0.074200
    101 H30         42.3900    30.6290    27.7560 ha         1 063       0.095000
    102 H31         44.7320    31.3470    27.7270 ha         1 063       0.130500
    103 H32         45.7480    27.9890    25.2960 ha         1 063       0.130500
    104 H33         43.3970    27.2630    25.3090 ha         1 063       0.095000
    105 H34         41.7740    27.7410    32.6170 h1         1 063       0.055700
    106 H35         43.2470    27.8940    31.6820 h1         1 063       0.055700
    107 H36         41.3780    30.0800    32.3770 hn         1 063       0.306500
    108 H37         43.6230    32.5290    31.3180 h1         1 063       0.120700
    109 H38         42.7980    31.9960    34.1940 hc         1 063       0.053700
    110 H39         44.4200    31.6770    33.6320 hc         1 063       0.053700
    111 H40         44.4260    33.8070    34.6540 hc         1 063       0.056700
    112 H41         44.7330    34.0140    32.9400 hc         1 063       0.056700
    113 H42         42.4360    34.8250    32.5800 h1         1 063       0.059700
    114 H43         42.0030    34.4470    34.2420 h1         1 063       0.059700
    115 H44         37.2970    37.1980    34.3310 hc         1 063       0.050811
    116 H45         38.6580    38.2940    34.5420 hc         1 063       0.050811
    117 H46         38.1080    37.8580    32.9160 hc         1 063       0.050811
    118 H47         37.7770    34.7450    33.4690 hc         1 063       0.050811
    119 H48         38.4930    35.4870    32.0450 hc         1 063       0.050811
    120 H49         39.4270    34.3390    33.0130 hc         1 063       0.050811
    121 H50         38.3630    35.4670    35.7710 hc         1 063       0.050811
    122 H51         40.0010    34.9070    35.4410 hc         1 063       0.050811
    123 H52         39.7270    36.5480    36.0480 hc         1 063       0.050811
    124 H53         45.0620    41.5570    31.4430 hc         1 063       0.046589
    125 H54         45.7940    42.9440    32.2400 hc         1 063       0.046589
    126 H55         46.4870    41.3430    32.4710 hc         1 063       0.046589
    127 H56         46.3430    41.8320    34.9670 hc         1 063       0.046589
    128 H57         45.5380    43.3700    34.6600 hc         1 063       0.046589
    129 H58         44.7740    42.1780    35.7100 hc         1 063       0.046589
    130 H59         42.7800    42.0480    32.5290 hc         1 063       0.046589
    131 H60         42.6770    42.2360    34.2870 hc         1 063       0.046589
    132 H61         43.4600    43.4710    33.3080 hc         1 063       0.046589
    133 H62         38.9140    30.6080    29.1680 hc         1 063       0.051367
    134 H63         38.1150    31.6180    27.9710 hc         1 063       0.051367
    135 H64         39.8710    31.5920    28.0540 hc         1 063       0.051367
    136 H65         39.1420    34.8870    29.6630 hc         1 063       0.051367
    137 H66         40.1590    34.0610    28.4710 hc         1 063       0.051367
    138 H67         38.4340    34.2500    28.1810 hc         1 063       0.051367
    139 H68         37.3860    33.5630    30.9840 hc         1 063       0.051367
    140 H69         36.7390    32.9330    29.4710 hc         1 063       0.051367
    141 H70         37.2460    31.8150    30.7360 hc         1 063       0.051367
    142 O12         44.3220    30.1150    31.2800 o          1 063      -0.555100
    143 N13         43.3100    36.0670    33.9970 nu         1 063      -0.881400
    144 C75         41.0530    32.3840    30.6770 c          1 063       0.641100
@<TRIPOS>BOND
     1     1    15 1   
     2     1    16 1   
     3     1    74 1   
     4     2    26 1   
     5     2    27 1   
     6     2    75 1   
     7     3    26 2   
     8     4    27 2   
     9     4    28 1   
    10     5    27 1   
    11     5    29 1   
    12     6    21 1   
    13     6    30 1   
    14     7    22 1   
    15     7    37 1   
    16     8    34 1   
    17     9    38 1   
    18     9    39 1   
    19    10    45 1   
    20    11    45 1   
    21    12    53 2   
    22    12    66 1   
    23    13    53 1   
    24    13    59 1   
    25    13    77 1   
    26    14    49 1   
    27    14    78 1   
    28    14   144 1   
    29    15    19 1   
    30    15    79 1   
    31    15    80 1   
    32    16    17 1   
    33    16    24 1   
    34    16    25 1   
    35    17    18 ar  
    36    17    20 ar  
    37    18    19 1   
    38    18    23 ar  
    39    19    81 1   
    40    19    82 1   
    41    20    21 ar  
    42    20    83 1   
    43    21    22 ar  
    44    22    23 ar  
    45    23    84 1   
    46    24    26 1   
    47    24    85 1   
    48    24    86 1   
    49    25    87 1   
    50    25    88 1   
    51    25    89 1   
    52    28    29 2   
    53    28    90 1   
    54    29    91 1   
    55    30    31 ar  
    56    30    35 ar  
    57    31    32 ar  
    58    31    92 1   
    59    32    33 ar  
    60    32    93 1   
    61    33    34 ar  
    62    33    36 1   
    63    34    35 ar  
    64    35    94 1   
    65    36    40 ar  
    66    36    44 ar  
    67    37    38 1   
    68    37    95 1   
    69    37    96 1   
    70    38    97 1   
    71    38    98 1   
    72    39    46 1   
    73    39    99 1   
    74    39   100 1   
    75    40    41 ar  
    76    40   101 1   
    77    41    42 ar  
    78    41   102 1   
    79    42    43 ar  
    80    42    45 1   
    81    43    44 ar  
    82    43   103 1   
    83    44   104 1   
    84    46    47 1   
    85    46   105 1   
    86    46   106 1   
    87    47    48 1   
    88    47   107 1   
    89    48    49 1   
    90    48   142 2   
    91    49    50 1   
    92    49   108 1   
    93    50    51 1   
    94    50   109 1   
    95    50   110 1   
    96    51    52 1   
    97    51   111 1   
    98    51   112 1   
    99    52   113 1   
   100    52   114 1   
   101    52   143 1   
   102    53   143 1   
   103    54    55 1   
   104    54    59 1   
   105    55    56 1   
   106    55    57 1   
   107    55    58 1   
   108    56   115 1   
   109    56   116 1   
   110    56   117 1   
   111    57   118 1   
   112    57   119 1   
   113    57   120 1   
   114    58   121 1   
   115    58   122 1   
   116    58   123 1   
   117    59    60 2   
   118    61    62 1   
   119    61    66 1   
   120    62    63 1   
   121    62    64 1   
   122    62    65 1   
   123    63   124 1   
   124    63   125 1   
   125    63   126 1   
   126    64   127 1   
   127    64   128 1   
   128    64   129 1   
   129    65   130 1   
   130    65   131 1   
   131    65   132 1   
   132    66    67 2   
   133    68    69 1   
   134    68   144 1   
   135    69    70 1   
   136    69    71 1   
   137    69    72 1   
   138    70   133 1   
   139    70   134 1   
   140    70   135 1   
   141    71   136 1   
   142    71   137 1   
   143    71   138 1   
   144    72   139 1   
   145    72   140 1   
   146    72   141 1   
   147    73   144 2   
   148    76   143 1   
@<TRIPOS>SUBSTRUCTURE
     1 063         1 TEMP              0 ****  ****    0 ROOT
