@<TRIPOS>MOLECULE
064
   57    60     1     0     0
SMALL
bcc


@<TRIPOS>ATOM
      1 C1           4.3960     0.1050     0.4340 cc         1 064       0.412800
      2 N4           5.6930     0.0590     0.4340 nd         1 064      -0.338300
      3 C5           4.9240    -1.5160     1.7920 cd         1 064       0.315000
      4 C7           3.3420     0.8110    -1.7190 ca         1 064       0.058900
      5 C8           3.1390     2.2410     0.1730 ca         1 064       0.058900
      6 C10          5.0920    -2.6510     2.7410 c3         1 064      -0.099000
      7 C16          5.8120    -3.8270     2.0790 c3         1 064      -0.087100
      8 C17          5.7950    -2.2050     4.0240 c3         1 064      -0.087100
      9 C18          0.5260    -1.2260     0.0250 ca         1 064       0.127100
     10 C19          2.1120     2.8510    -1.8930 ca         1 064      -0.096000
     11 C20          0.1240    -1.2170    -1.3080 ca         1 064      -0.160000
     12 C21         -0.4230    -1.0410     1.0270 ca         1 064      -0.208000
     13 C22         -1.2070    -1.0220    -1.6200 ca         1 064       0.055400
     14 C23         -1.7490    -0.8470     0.6810 ca         1 064      -0.092000
     15 C24         -2.1910    -0.8180    -0.6440 ca         1 064      -0.034800
     16 C26         -3.5960    -0.6060    -0.9840 ce         1 064      -0.179200
     17 C27         -4.4660     0.0660    -0.2180 cf         1 064      -0.029200
     18 C28         -5.8860     0.2760    -0.4970 ca         1 064      -0.120800
     19 C29         -6.6040     1.1490     0.3230 ca         1 064      -0.078000
     20 C30         -6.5630    -0.3550    -1.5470 ca         1 064      -0.127000
     21 C32         -7.9070    -0.1020    -1.7620 ca         1 064      -0.173000
     22 C2           3.8380    -0.8790     1.2890 cc         1 064      -0.339900
     23 C3           3.6420     1.0680    -0.3840 ca         1 064      -0.123500
     24 O9           6.0250    -0.9490     1.2860 os         1 064      -0.115100
     25 O11          1.8350    -1.4350     0.2430 os         1 064      -0.321900
     26 C12          2.5870     1.6880    -2.4790 ca         1 064      -0.122000
     27 C14          2.3820     3.1360    -0.5640 ca         1 064      -0.122000
     28 CL25        -1.6340    -0.9950    -3.3020 cl         1 064      -0.119400
     29 C31         -7.9530     1.4140     0.1160 ca         1 064      -0.144600
     30 C33         -8.6010     0.7780    -0.9390 ca         1 064      -0.084000
     31 C34         -8.7030     2.3800     1.0270 c          1 064       0.924200
     32 O35         -8.0480     2.8940     1.9550 o          1 064      -0.824300
     33 O36         -9.9050     2.5720     0.7660 o          1 064      -0.824300
     34 H6           2.2140    -1.8970     2.2390 h1         1 064       0.048200
     35 H6A          1.9270    -0.1900     1.9000 h1         1 064       0.048200
     36 H10          4.0820    -2.9770     3.0050 hc         1 064       0.064700
     37 H16          6.8370    -3.5700     1.8080 hc         1 064       0.043367
     38 H16A         5.8520    -4.6700     2.7680 hc         1 064       0.043367
     39 H16B         5.2930    -4.1550     1.1780 hc         1 064       0.043367
     40 H17          5.2730    -1.3720     4.4960 hc         1 064       0.043367
     41 H17A         5.8200    -3.0300     4.7360 hc         1 064       0.043367
     42 H17B         6.8240    -1.8990     3.8330 hc         1 064       0.043367
     43 H19          1.5200     3.5410    -2.4780 ha         1 064       0.146000
     44 H20          0.8600    -1.3490    -2.0900 ha         1 064       0.154000
     45 H21         -0.1550    -1.0720     2.0750 ha         1 064       0.132000
     46 H23         -2.4750    -0.7400     1.4770 ha         1 064       0.142000
     47 H26         -3.9300    -1.0210    -1.9280 ha         1 064       0.135000
     48 H27         -4.1120     0.5340     0.6960 ha         1 064       0.115000
     49 H29         -6.0960     1.6390     1.1440 ha         1 064       0.145000
     50 H30         -6.0450    -1.0510    -2.1950 ha         1 064       0.106000
     51 H32         -8.4200    -0.5960    -2.5770 ha         1 064       0.106000
     52 H12          2.3680     1.4640    -3.5130 ha         1 064       0.155000
     53 H14          2.0070     4.0410    -0.1070 ha         1 064       0.155000
     54 H33         -9.6500     0.9690    -1.1170 ha         1 064       0.146000
     55 C6           2.3890    -1.1020     1.5090 c3         1 064       0.223700
     56 CL13         3.9070    -0.6500    -2.4450 cl         1 064      -0.092400
     57 CL15         3.4590     2.5810     1.8370 cl         1 064      -0.092400
@<TRIPOS>BOND
     1     1     2 2   
     2     1    22 1   
     3     1    23 1   
     4     2    24 1   
     5     3     6 1   
     6     3    22 2   
     7     3    24 1   
     8     4    23 ar  
     9     4    26 ar  
    10     4    56 1   
    11     5    23 ar  
    12     5    27 ar  
    13     5    57 1   
    14     6     7 1   
    15     6     8 1   
    16     6    36 1   
    17     7    37 1   
    18     7    38 1   
    19     7    39 1   
    20     8    40 1   
    21     8    41 1   
    22     8    42 1   
    23     9    11 ar  
    24     9    12 ar  
    25     9    25 1   
    26    10    26 ar  
    27    10    27 ar  
    28    10    43 1   
    29    11    13 ar  
    30    11    44 1   
    31    12    14 ar  
    32    12    45 1   
    33    13    15 ar  
    34    13    28 1   
    35    14    15 ar  
    36    14    46 1   
    37    15    16 1   
    38    16    17 2   
    39    16    47 1   
    40    17    18 1   
    41    17    48 1   
    42    18    19 ar  
    43    18    20 ar  
    44    19    29 ar  
    45    19    49 1   
    46    20    21 ar  
    47    20    50 1   
    48    21    30 ar  
    49    21    51 1   
    50    22    55 1   
    51    25    55 1   
    52    26    52 1   
    53    27    53 1   
    54    29    30 ar  
    55    29    31 1   
    56    30    54 1   
    57    31    32 1   
    58    31    33 1   
    59    34    55 1   
    60    35    55 1   
@<TRIPOS>SUBSTRUCTURE
     1 064         1 TEMP              0 ****  ****    0 ROOT
