@<TRIPOS>MOLECULE
064
   57    60     1     0     0
SMALL
No Charge or Current Charge


@<TRIPOS>ATOM
      1 C1           4.6990    -0.1570     0.2050 cc         1 064       0.347500
      2 N4           6.0080    -0.3460     0.3030 nd         1 064      -0.338300
      3 C5           4.9090    -1.5440     1.8880 cd         1 064       0.205300
      4 C7           4.4330     0.7060    -2.1290 ca         1 064       0.150500
      5 C8           3.3690     1.9180    -0.3080 ca         1 064       0.150500
      6 C10          4.7810    -2.5060     3.0490 c3         1 064      -0.099000
      7 C16          5.1750    -3.9410     2.6360 c3         1 064      -0.087100
      8 C17          5.5840    -2.0240     4.2780 c3         1 064      -0.087100
      9 C18          0.5180    -0.7000    -0.1810 ca         1 064       0.127100
     10 C19          3.0920     2.6840    -2.6040 ca         1 064      -0.078000
     11 C20          0.0700    -0.4220    -1.4790 ca         1 064      -0.142000
     12 C21         -0.4170    -0.8410     0.8630 ca         1 064      -0.190000
     13 C22         -1.3010    -0.2800    -1.7450 ca         1 064       0.147000
     14 C23         -1.7910    -0.7010     0.6000 ca         1 064      -0.074000
     15 C24         -2.2520    -0.4160    -0.7030 ca         1 064      -0.034800
     16 C26         -3.7180    -0.2740    -0.9610 ce         1 064      -0.229200
     17 C27         -4.6960     0.1090    -0.0900 cf         1 064      -0.079200
     18 C28         -6.1510     0.2580    -0.3140 ca         1 064      -0.120800
     19 C29         -6.9720     0.6790     0.7540 ca         1 064      -0.060000
     20 C30         -6.7420    -0.0100    -1.5660 ca         1 064      -0.109000
     21 C32         -8.1260     0.1420    -1.7420 ca         1 064      -0.155000
     22 C2           3.9590    -0.8750     1.1840 cc         1 064      -0.209300
     23 C3           4.1550     0.8230    -0.7450 ca         1 064      -0.123500
     24 O9           6.1530    -1.2610     1.3950 os         1 064      -0.070700
     25 O11          1.8750    -0.8170     0.0150 os         1 064      -0.345100
     26 C12          3.8950     1.6240    -3.0480 ca         1 064      -0.104000
     27 C14          2.8390     2.8340    -1.2330 ca         1 064      -0.104000
     28 Cl25        -1.7890     0.0940    -3.4000 cl         1 064      -0.211000
     29 C31         -8.3690     0.8360     0.5900 ca         1 064      -0.144600
     30 C33         -8.9360     0.5610    -0.6750 ca         1 064      -0.066000
     31 C34         -9.2420     1.2900     1.7490 c          1 064       0.713600
     32 O35         -8.7120     1.5170     2.8280 o          1 064      -0.719000
     33 O36        -10.4440     1.4130     1.5640 o          1 064      -0.719000
     34 H6           2.1750    -1.9090     1.7640 h1         1 064       0.048200
     35 H6A          2.1090    -0.1520     1.9920 h1         1 064       0.048200
     36 H10          3.7290    -2.5410     3.3570 hc         1 064       0.064700
     37 H16          6.2300    -3.9880     2.3380 hc         1 064       0.043367
     38 H16A         5.0220    -4.6410     3.4660 hc         1 064       0.043367
     39 H16B         4.5650    -4.2800     1.7900 hc         1 064       0.043367
     40 H17          5.2670    -1.0160     4.5740 hc         1 064       0.043367
     41 H17A         5.4260    -2.6930     5.1320 hc         1 064       0.043367
     42 H17B         6.6590    -1.9950     4.0600 hc         1 064       0.043367
     43 H19          2.6790     3.3950    -3.3180 ha         1 064       0.128000
     44 H20          0.7910    -0.3080    -2.2830 ha         1 064       0.136000
     45 H21         -0.1010    -1.0650     1.8780 ha         1 064       0.114000
     46 H23         -2.4980    -0.8280     1.4160 ha         1 064       0.124000
     47 H26         -4.0130    -0.5100    -1.9820 ha         1 064       0.185000
     48 H27         -4.3830     0.3590     0.9250 ha         1 064       0.165000
     49 H29         -6.5190     0.8850     1.7210 ha         1 064       0.127000
     50 H30         -6.1430    -0.3350    -2.4110 ha         1 064       0.088000
     51 H32         -8.5740    -0.0660    -2.7110 ha         1 064       0.088000
     52 H12          4.0970     1.5060    -4.1090 ha         1 064       0.137000
     53 H14          2.2460     3.6740    -0.8820 ha         1 064       0.137000
     54 H33        -10.0070     0.6720    -0.8360 ha         1 064       0.128000
     55 C6           2.4590    -0.9450     1.3210 c3         1 064       0.246900
     56 Cl13         5.3700    -0.6410    -2.7790 cl         1 064      -0.184000
     57 Cl15         3.1350     2.2750     1.4040 cl         1 064      -0.184000
@<TRIPOS>BOND
     1     1     2 2   
     2     1    22 1   
     3     1    23 1   
     4     2    24 1   
     5     3     6 1   
     6     3    22 2   
     7     3    24 1   
     8     4    23 ar  
     9     4    26 ar  
    10     4    56 1   
    11     5    23 ar  
    12     5    27 ar  
    13     5    57 1   
    14     6     7 1   
    15     6     8 1   
    16     6    36 1   
    17     7    37 1   
    18     7    38 1   
    19     7    39 1   
    20     8    40 1   
    21     8    41 1   
    22     8    42 1   
    23     9    11 ar  
    24     9    12 ar  
    25     9    25 1   
    26    10    26 ar  
    27    10    27 ar  
    28    10    43 1   
    29    11    13 ar  
    30    11    44 1   
    31    12    14 ar  
    32    12    45 1   
    33    13    15 ar  
    34    13    28 1   
    35    14    15 ar  
    36    14    46 1   
    37    15    16 1   
    38    16    17 2   
    39    16    47 1   
    40    17    18 1   
    41    17    48 1   
    42    18    19 ar  
    43    18    20 ar  
    44    19    29 ar  
    45    19    49 1   
    46    20    21 ar  
    47    20    50 1   
    48    21    30 ar  
    49    21    51 1   
    50    22    55 1   
    51    25    55 1   
    52    26    52 1   
    53    27    53 1   
    54    29    30 ar  
    55    29    31 1   
    56    30    54 1   
    57    31    32 1   
    58    31    33 1   
    59    34    55 1   
    60    35    55 1   
@<TRIPOS>SUBSTRUCTURE
     1 064         1 TEMP              0 ****  ****    0 ROOT
