@<TRIPOS>MOLECULE
065
   76    80     1     0     0
SMALL
No Charge or Current Charge


@<TRIPOS>ATOM
      1 C2          15.7630    34.6510    18.2050 ca         1 065       0.110100
      2 O39         15.1720    35.2940    19.2440 os         1 065      -0.342100
      3 C40         15.9260    36.5570    19.3140 c5         1 065       0.371600
      4 O41         16.8740    36.6230    18.1900 os         1 065      -0.344100
      5 C3          16.7310    35.4060    17.6050 ca         1 065       0.033100
      6 C4          17.4550    34.9340    16.5040 ca         1 065      -0.011000
      7 C5          17.1670    33.6330    16.0230 ca         1 065      -0.322500
      8 C6          16.1530    32.8550    16.6440 ca         1 065      -0.006000
      9 C7          15.4420    33.3670    17.7490 ca         1 065      -0.121000
     10 S8          18.0780    32.9780    14.6130 sy         1 065       1.195600
     11 O9          17.3290    31.8750    14.0030 o          1 065      -0.541500
     12 O10         18.5710    34.0860    13.7880 o          1 065      -0.541500
     13 N11         19.4520    32.2720    15.3450 n3         1 065      -0.741500
     14 C12         20.3730    33.2680    15.9600 c3         1 065       0.203800
     15 C13         21.8120    32.7760    16.2720 c3         1 065      -0.063700
     16 C14         22.5650    32.3310    14.9950 c3         1 065      -0.091600
     17 C15         22.6150    33.8600    17.0270 c3         1 065      -0.091600
     18 C16         19.1380    31.1130    16.2360 c3         1 065       0.210800
     19 C17         19.9750    29.8250    15.9640 c3         1 065       0.155300
     20 O18         19.7630    28.8700    17.0240 oh         1 065      -0.672000
     21 C19         19.6910    29.1740    14.5730 c3         1 065       0.097700
     22 N20         20.7160    28.1750    14.2330 ns         1 065      -0.502900
     23 C21         21.7040    28.3540    13.3090 c          1 065       0.636100
     24 O22         21.9150    29.3890    12.6980 o          1 065      -0.538000
     25 O23         22.3610    27.1660    13.1530 os         1 065      -0.460100
     26 C24         23.3860    27.1550    12.1170 c5         1 065       0.160300
     27 C25         24.3980    26.0370    12.4880 c5         1 065       0.152600
     28 O26         23.7910    24.8360    11.9780 os         1 065      -0.467000
     29 C27         23.2840    25.1460    10.6700 c5         1 065       0.368300
     30 O28         22.0740    24.3900    10.4800 os         1 065      -0.447000
     31 C29         21.0130    25.1260    11.1160 c5         1 065       0.151600
     32 C30         21.2780    26.5630    10.6150 c5         1 065      -0.094400
     33 C31         22.8460    26.6500    10.7150 c5         1 065      -0.141700
     34 C32         18.2770    28.5480    14.4130 c3         1 065      -0.038100
     35 C33         17.8410    26.5630    12.8720 ca         1 065      -0.101500
     36 C34         17.6300    26.0150    11.5950 ca         1 065      -0.116000
     37 C35         17.6300    26.8470    10.4630 ca         1 065      -0.115000
     38 C36         17.8340    28.2290    10.6100 ca         1 065      -0.116000
     39 C37         18.0390    28.7790    11.8870 ca         1 065      -0.101500
     40 C38         18.0470    27.9490    13.0270 ca         1 065      -0.085300
     41 H27         24.0300    24.9370     9.8910 h2         1 065       0.082700
     42 H31         23.2830    27.2210     9.8890 hc         1 065       0.077700
     43 H24         23.8980    28.1270    12.0610 h1         1 065       0.088700
     44 H141        22.0070    31.5580    14.4550 hc         1 065       0.040700
     45 H142        22.7100    33.1780    14.3140 hc         1 065       0.040700
     46 H143        23.5500    31.9210    15.2480 hc         1 065       0.040700
     47 H13         21.7460    31.9190    16.9500 hc         1 065       0.045700
     48 H151        22.1080    34.1390    17.9600 hc         1 065       0.040700
     49 H152        23.6160    33.4930    17.2850 hc         1 065       0.040700
     50 H153        22.7280    34.7630    16.4150 hc         1 065       0.040700
     51 H121        20.4890    34.1380    15.3000 h1         1 065       0.052700
     52 H122        19.9300    33.6460    16.8920 h1         1 065       0.052700
     53 H161        19.2870    31.4030    17.2850 h1         1 065       0.063200
     54 H162        18.0820    30.8280    16.1680 h1         1 065       0.063200
     55 H17         21.0310    30.1160    15.9640 h1         1 065       0.055700
     56 H18         20.4630    28.1860    16.9380 ho         1 065       0.450000
     57 H19         19.7620    29.9860    13.8360 h1         1 065       0.103700
     58 H321        18.1340    27.7810    15.1820 hc         1 065       0.063200
     59 H322        17.5110    29.3070    14.6040 hc         1 065       0.063200
     60 H34         17.4690    24.9450    11.4830 ha         1 065       0.112500
     61 H35         17.4700    26.4220     9.4740 ha         1 065       0.111000
     62 H36         17.8320    28.8750     9.7350 ha         1 065       0.112500
     63 H37         18.1910    29.8510    11.9910 ha         1 065       0.122500
     64 H20         20.6360    27.2400    14.6080 hn         1 065       0.322500
     65 H251        25.3660    26.1910    11.9920 h1         1 065       0.062200
     66 H252        24.5630    25.9500    13.5700 h1         1 065       0.062200
     67 H291        20.0380    24.7330    10.8010 h1         1 065       0.056700
     68 H292        21.1020    25.0370    12.2070 h1         1 065       0.056700
     69 H301        20.9550    26.6550     9.5710 hc         1 065       0.066700
     70 H302        20.7230    27.3250    11.1670 hc         1 065       0.066700
     71 H6          15.9120    31.8590    16.2740 ha         1 065       0.142000
     72 H7          14.6630    32.7850    18.2340 ha         1 065       0.142000
     73 H401        15.2320    37.4040    19.2620 h2         1 065       0.074700
     74 H402        16.4850    36.5880    20.2570 h2         1 065       0.074700
     75 H4          18.2160    35.5610    16.0420 ha         1 065       0.153000
     76 H33         17.8430    25.9080    13.7410 ha         1 065       0.122500
@<TRIPOS>BOND
     1     1     2 1   
     2     1     5 ar  
     3     1     9 ar  
     4     2     3 1   
     5     3     4 1   
     6     3    73 1   
     7     3    74 1   
     8     4     5 1   
     9     5     6 ar  
    10     6     7 ar  
    11     6    75 1   
    12     7     8 ar  
    13     7    10 1   
    14     8     9 ar  
    15     8    71 1   
    16     9    72 1   
    17    10    11 2   
    18    10    12 2   
    19    10    13 1   
    20    13    14 1   
    21    13    18 1   
    22    14    15 1   
    23    14    51 1   
    24    14    52 1   
    25    15    16 1   
    26    15    17 1   
    27    15    47 1   
    28    16    44 1   
    29    16    45 1   
    30    16    46 1   
    31    17    48 1   
    32    17    49 1   
    33    17    50 1   
    34    18    19 1   
    35    18    53 1   
    36    18    54 1   
    37    19    20 1   
    38    19    21 1   
    39    19    55 1   
    40    20    56 1   
    41    21    22 1   
    42    21    34 1   
    43    21    57 1   
    44    22    23 1   
    45    22    64 1   
    46    23    24 2   
    47    23    25 1   
    48    25    26 1   
    49    26    27 1   
    50    26    33 1   
    51    26    43 1   
    52    27    28 1   
    53    27    65 1   
    54    27    66 1   
    55    28    29 1   
    56    29    30 1   
    57    29    33 1   
    58    29    41 1   
    59    30    31 1   
    60    31    32 1   
    61    31    67 1   
    62    31    68 1   
    63    32    33 1   
    64    32    69 1   
    65    32    70 1   
    66    33    42 1   
    67    34    40 1   
    68    34    58 1   
    69    34    59 1   
    70    35    36 ar  
    71    35    40 ar  
    72    35    76 1   
    73    36    37 ar  
    74    36    60 1   
    75    37    38 ar  
    76    37    61 1   
    77    38    39 ar  
    78    38    62 1   
    79    39    40 ar  
    80    39    63 1   
@<TRIPOS>SUBSTRUCTURE
     1 065         1 TEMP              0 ****  ****    0 ROOT
