@<TRIPOS>MOLECULE
065
   76    80     1     0     0
SMALL
abcg2


@<TRIPOS>ATOM
      1 C2          15.6610    34.7520    17.7380 ca         1 065       0.110100
      2 O39         15.0070    35.5530    18.6230 os         1 065      -0.342100
      3 C40         15.8320    36.7210    18.8000 c5         1 065       0.371600
      4 O41         16.8490    36.6690    17.7840 os         1 065      -0.344100
      5 C3          16.7740    35.4220    17.2330 ca         1 065       0.033100
      6 C4          17.6020    34.8570    16.2990 ca         1 065      -0.011000
      7 C5          17.2670    33.5550    15.8810 ca         1 065      -0.322500
      8 C6          16.1570    32.8810    16.3760 ca         1 065      -0.006000
      9 C7          15.3220    33.4840    17.3240 ca         1 065      -0.121000
     10 S8          18.3660    32.7210    14.7770 sy         1 065       1.195600
     11 O9          17.6490    31.6280    14.1650 o          1 065      -0.541500
     12 O10         18.9890    33.7130    13.9330 o          1 065      -0.541500
     13 N11         19.5570    32.0580    15.7030 n3         1 065      -0.741500
     14 C12         20.4970    33.0060    16.3360 c3         1 065       0.203800
     15 C13         21.9400    32.5020    16.3870 c3         1 065      -0.063700
     16 C14         22.4930    32.2300    14.9900 c3         1 065      -0.091600
     17 C15         22.7900    33.5330    17.1330 c3         1 065      -0.091600
     18 C16         19.1920    30.8850    16.5110 c3         1 065       0.210800
     19 C17         19.9910    29.6370    16.1370 c3         1 065       0.155300
     20 O18         19.7030    28.6850    17.1630 oh         1 065      -0.672000
     21 C19         19.6870    29.1070    14.7260 c3         1 065       0.097700
     22 N20         20.7310    28.1860    14.3020 ns         1 065      -0.502900
     23 C21         21.5560    28.4450    13.2700 c          1 065       0.636100
     24 O22         21.5960    29.4830    12.6300 o          1 065      -0.538000
     25 O23         22.3630    27.3810    13.0390 os         1 065      -0.460100
     26 C24         23.2640    27.4620    11.9170 c5         1 065       0.160300
     27 C25         24.4600    26.5850    12.2330 c5         1 065       0.152600
     28 O26         24.0630    25.2620    11.8680 os         1 065      -0.467000
     29 C27         23.2580    25.3530    10.6890 c5         1 065       0.368300
     30 O28         22.1850    24.4570    10.7560 os         1 065      -0.447000
     31 C29         21.0140    25.1680    11.2150 c5         1 065       0.151600
     32 C30         21.1630    26.5640    10.6210 c5         1 065      -0.094400
     33 C31         22.6800    26.7930    10.6570 c5         1 065      -0.141700
     34 C32         18.3100    28.4430    14.6010 c3         1 065      -0.038100
     35 C33         17.9310    26.5870    12.9350 ca         1 065      -0.101500
     36 C34         17.6740    26.1260    11.6470 ca         1 065      -0.116000
     37 C35         17.5200    27.0290    10.6010 ca         1 065      -0.115000
     38 C36         17.6240    28.3940    10.8550 ca         1 065      -0.116000
     39 C37         17.8740    28.8500    12.1440 ca         1 065      -0.101500
     40 C38         18.0290    27.9520    13.2030 ca         1 065      -0.085300
     41 H27         23.8650    25.0810     9.8230 h2         1 065       0.082700
     42 H31         23.0300    27.3350     9.7810 hc         1 065       0.077700
     43 H24         23.5270    28.5020    11.7550 h1         1 065       0.088700
     44 H141        21.8920    31.4970    14.4520 hc         1 065       0.040700
     45 H142        22.5070    33.1510    14.4000 hc         1 065       0.040700
     46 H143        23.5160    31.8520    15.0490 hc         1 065       0.040700
     47 H13         21.9660    31.5740    16.9650 hc         1 065       0.045700
     48 H151        22.4050    33.7110    18.1390 hc         1 065       0.040700
     49 H152        23.8220    33.1880    17.2190 hc         1 065       0.040700
     50 H153        22.7970    34.4870    16.5980 hc         1 065       0.040700
     51 H121        20.4800    33.9290    15.7600 h1         1 065       0.052700
     52 H122        20.1440    33.2300    17.3480 h1         1 065       0.052700
     53 H161        19.3890    31.1130    17.5600 h1         1 065       0.063200
     54 H162        18.1280    30.6770    16.4200 h1         1 065       0.063200
     55 H17         21.0540    29.8810    16.1570 h1         1 065       0.055700
     56 H18         20.3360    27.9590    17.1040 ho         1 065       0.450000
     57 H19         19.7430    29.9560    14.0480 h1         1 065       0.103700
     58 H321        18.2540    27.6070    15.2990 hc         1 065       0.063200
     59 H322        17.5520    29.1680    14.8980 hc         1 065       0.063200
     60 H34         17.6020    25.0610    11.4600 ha         1 065       0.112500
     61 H35         17.3280    26.6730     9.5970 ha         1 065       0.111000
     62 H36         17.5080    29.1050    10.0460 ha         1 065       0.112500
     63 H37         17.9480    29.9130    12.3360 ha         1 065       0.122500
     64 H20         20.7410    27.2500    14.6770 hn         1 065       0.322500
     65 H251        25.3230    26.9080    11.6410 h1         1 065       0.062200
     66 H252        24.7240    26.5900    13.2890 h1         1 065       0.062200
     67 H291        20.1430    24.6250    10.8570 h1         1 065       0.056700
     68 H292        20.9970    25.1960    12.3070 h1         1 065       0.056700
     69 H301        20.8190    26.5660     9.5870 hc         1 065       0.066700
     70 H302        20.5920    27.3130    11.1630 hc         1 065       0.066700
     71 H6          15.9310    31.8860    16.0220 ha         1 065       0.142000
     72 H7          14.4490    32.9770    17.7100 ha         1 065       0.142000
     73 H401        15.2270    37.6150    18.6650 h2         1 065       0.074700
     74 H402        16.3010    36.6840    19.7860 h2         1 065       0.074700
     75 H4          18.4540    35.3840    15.8980 ha         1 065       0.153000
     76 H33         18.0580    25.8780    13.7450 ha         1 065       0.122500
@<TRIPOS>BOND
     1     1     2 1   
     2     1     5 ar  
     3     1     9 ar  
     4     2     3 1   
     5     3     4 1   
     6     3    73 1   
     7     3    74 1   
     8     4     5 1   
     9     5     6 ar  
    10     6     7 ar  
    11     6    75 1   
    12     7     8 ar  
    13     7    10 1   
    14     8     9 ar  
    15     8    71 1   
    16     9    72 1   
    17    10    11 2   
    18    10    12 2   
    19    10    13 1   
    20    13    14 1   
    21    13    18 1   
    22    14    15 1   
    23    14    51 1   
    24    14    52 1   
    25    15    16 1   
    26    15    17 1   
    27    15    47 1   
    28    16    44 1   
    29    16    45 1   
    30    16    46 1   
    31    17    48 1   
    32    17    49 1   
    33    17    50 1   
    34    18    19 1   
    35    18    53 1   
    36    18    54 1   
    37    19    20 1   
    38    19    21 1   
    39    19    55 1   
    40    20    56 1   
    41    21    22 1   
    42    21    34 1   
    43    21    57 1   
    44    22    23 1   
    45    22    64 1   
    46    23    24 2   
    47    23    25 1   
    48    25    26 1   
    49    26    27 1   
    50    26    33 1   
    51    26    43 1   
    52    27    28 1   
    53    27    65 1   
    54    27    66 1   
    55    28    29 1   
    56    29    30 1   
    57    29    33 1   
    58    29    41 1   
    59    30    31 1   
    60    31    32 1   
    61    31    67 1   
    62    31    68 1   
    63    32    33 1   
    64    32    69 1   
    65    32    70 1   
    66    33    42 1   
    67    34    40 1   
    68    34    58 1   
    69    34    59 1   
    70    35    36 ar  
    71    35    40 ar  
    72    35    76 1   
    73    36    37 ar  
    74    36    60 1   
    75    37    38 ar  
    76    37    61 1   
    77    38    39 ar  
    78    38    62 1   
    79    39    40 ar  
    80    39    63 1   
@<TRIPOS>SUBSTRUCTURE
     1 065         1 TEMP              0 ****  ****    0 ROOT
