@<TRIPOS>MOLECULE
066
   63    66     1     0     0
SMALL
abcg2


@<TRIPOS>ATOM
      1 O5           5.3100     1.9600    -0.5760 o          1 066      -0.649100
      2 C26          5.5730     0.7790    -0.8180 c          1 066       0.642700
      3 N4           6.8170     0.4050    -1.1400 nt         1 066      -0.591000
      4 C8           4.5300    -0.2790    -0.7570 ca         1 066      -0.340600
      5 C9           4.7670    -1.5700    -1.2700 ca         1 066       0.428900
      6 N2           3.9230    -2.5630    -1.2740 nb         1 066      -0.712000
      7 C10          2.7390    -2.3790    -0.6500 ca         1 066       0.348000
      8 C16          2.3680    -1.1380    -0.0860 ca         1 066      -0.164000
      9 C15          1.1970    -1.0600     0.6910 ca         1 066       0.047000
     10 C14          0.3970    -2.1630     0.8070 ca         1 066      -0.283500
     11 S           -1.0510    -2.0600     1.8210 sy         1 066       1.025000
     12 O3          -0.8570    -0.9780     2.7800 o          1 066      -0.521500
     13 C17         -2.3440    -1.5720     0.7070 ca         1 066      -0.269500
     14 C22         -2.6660    -0.2290     0.5910 ca         1 066       0.035000
     15 C21         -3.6970     0.1480    -0.2620 ca         1 066      -0.166600
     16 C23         -4.1130     1.5870    -0.2740 c          1 066       0.614700
     17 N3          -4.3370     2.1760    -1.4610 n          1 066      -0.410800
     18 C25         -4.8840     3.5200    -1.4810 c3         1 066       0.086800
     19 C24         -3.9090     1.6600    -2.7470 c3         1 066       0.086800
     20 O4          -4.2670     2.1660     0.7940 o          1 066      -0.593100
     21 C20         -4.4010    -0.8260    -0.9620 ca         1 066      -0.035000
     22 C19         -4.0760    -2.1680    -0.8250 ca         1 066      -0.139000
     23 C18         -3.0420    -2.5520     0.0130 ca         1 066       0.002000
     24 O2          -1.3620    -3.4040     2.2970 o          1 066      -0.521500
     25 C13          0.7080    -3.3770     0.1680 ca         1 066      -0.018000
     26 C11          1.8670    -3.5010    -0.5520 ca         1 066      -0.075300
     27 C12          2.2460    -4.7970    -1.1960 c3         1 066      -0.036800
     28 C7           3.2460    -0.0120    -0.2600 ca         1 066       0.448000
     29 N1           2.8580     1.2340     0.0950 nu         1 066      -0.965000
     30 C6           1.5660     1.7730    -0.0840 ca         1 066       0.300000
     31 C27          1.1120     2.7090     0.8320 ca         1 066      -0.155000
     32 C5           0.7810     1.4210    -1.1820 ca         1 066      -0.180000
     33 C4          -0.4550     2.0190    -1.3360 ca         1 066      -0.064000
     34 C3          -0.9250     2.9660    -0.4340 ca         1 066      -0.212000
     35 C2          -0.1340     3.3160     0.6570 ca         1 066       0.170100
     36 O1          -0.4870     4.2140     1.5930 os         1 066      -0.334100
     37 C1          -1.7400     4.8610     1.4700 c3         1 066       0.140900
     38 HN4          7.5430     1.1030    -1.1570 hn         1 066       0.318000
     39 HN4A         7.1140    -0.5510    -1.2130 hn         1 066       0.318000
     40 H9           5.7130    -1.7810    -1.7580 h4         1 066       0.009100
     41 H15          0.9490    -0.1560     1.2260 ha         1 066       0.151000
     42 H22         -2.1280     0.5220     1.1540 ha         1 066       0.155000
     43 H25         -4.1010     4.2780    -1.4000 h1         1 066       0.043200
     44 H25A        -5.4050     3.6710    -2.4250 h1         1 066       0.043200
     45 H25B        -5.5930     3.6640    -0.6710 h1         1 066       0.043200
     46 H24         -4.7620     1.3640    -3.3610 h1         1 066       0.043200
     47 H24A        -3.3590     2.4360    -3.2810 h1         1 066       0.043200
     48 H24B        -3.2480     0.8060    -2.6370 h1         1 066       0.043200
     49 H20         -5.2250    -0.5470    -1.6070 ha         1 066       0.120000
     50 H19         -4.6390    -2.9180    -1.3630 ha         1 066       0.123000
     51 H18         -2.7980    -3.6000     0.1270 ha         1 066       0.137000
     52 H13          0.0470    -4.2290     0.2670 ha         1 066       0.134000
     53 H12          3.1600    -5.2020    -0.7590 hc         1 066       0.048700
     54 H12A         1.4560    -5.5360    -1.0740 hc         1 066       0.048700
     55 H12B         2.4350    -4.6710    -2.2620 hc         1 066       0.048700
     56 HN1          3.6200     1.9090     0.0480 hn         1 066       0.543000
     57 H27          1.7220     2.9730     1.6870 ha         1 066       0.144000
     58 H5           1.1360     0.7080    -1.9130 ha         1 066       0.125000
     59 H4          -1.0630     1.7590    -2.1920 ha         1 066       0.109000
     60 H3          -1.8870     3.4260    -0.6050 ha         1 066       0.125000
     61 H1          -1.8000     5.4590     0.5570 h1         1 066       0.048700
     62 H1A         -2.5710     4.1510     1.4840 h1         1 066       0.048700
     63 H1B         -1.8280     5.5230     2.3270 h1         1 066       0.048700
@<TRIPOS>BOND
     1     1     2 2   
     2     2     3 1   
     3     2     4 1   
     4     3    38 1   
     5     3    39 1   
     6     4     5 ar  
     7     4    28 ar  
     8     5     6 ar  
     9     5    40 1   
    10     6     7 ar  
    11     7     8 ar  
    12     7    26 ar  
    13     8     9 ar  
    14     8    28 ar  
    15     9    10 ar  
    16     9    41 1   
    17    10    11 1   
    18    10    25 ar  
    19    11    12 2   
    20    11    13 1   
    21    11    24 2   
    22    13    14 ar  
    23    13    23 ar  
    24    14    15 ar  
    25    14    42 1   
    26    15    16 1   
    27    15    21 ar  
    28    16    17 1   
    29    16    20 2   
    30    17    18 1   
    31    17    19 1   
    32    18    43 1   
    33    18    44 1   
    34    18    45 1   
    35    19    46 1   
    36    19    47 1   
    37    19    48 1   
    38    21    22 ar  
    39    21    49 1   
    40    22    23 ar  
    41    22    50 1   
    42    23    51 1   
    43    25    26 ar  
    44    25    52 1   
    45    26    27 1   
    46    27    53 1   
    47    27    54 1   
    48    27    55 1   
    49    28    29 1   
    50    29    30 1   
    51    29    56 1   
    52    30    31 ar  
    53    30    32 ar  
    54    31    35 ar  
    55    31    57 1   
    56    32    33 ar  
    57    32    58 1   
    58    33    34 ar  
    59    33    59 1   
    60    34    35 ar  
    61    34    60 1   
    62    35    36 1   
    63    36    37 1   
    64    37    61 1   
    65    37    62 1   
    66    37    63 1   
@<TRIPOS>SUBSTRUCTURE
     1 066         1 TEMP              0 ****  ****    0 ROOT
