@<TRIPOS>MOLECULE
066
   63    66     1     0     0
SMALL
No Charge or Current Charge


@<TRIPOS>ATOM
      1 O5           5.1770     1.9010    -0.0140 o          1 066      -0.649100
      2 C26          5.3410     0.8820    -0.6640 c          1 066       0.642700
      3 N4           6.4270     0.7980    -1.4570 nt         1 066      -0.591000
      4 C8           4.4240    -0.2980    -0.5830 ca         1 066      -0.340600
      5 C9           4.8440    -1.5340    -1.0730 ca         1 066       0.428900
      6 N2           4.0930    -2.6480    -1.0220 nb         1 066      -0.712000
      7 C10          2.8740    -2.6070    -0.4420 ca         1 066       0.348000
      8 C16          2.3660    -1.4040     0.0950 ca         1 066      -0.164000
      9 C15          1.1180    -1.4040     0.7590 ca         1 066       0.047000
     10 C14          0.3600    -2.5810     0.8560 ca         1 066      -0.283500
     11 S           -1.2070    -2.5530     1.7490 sy         1 066       1.025000
     12 O3          -1.0600    -1.6130     2.8690 o          1 066      -0.521500
     13 C17         -2.3580    -1.8190     0.5700 ca         1 066      -0.269500
     14 C22         -2.6570    -0.4410     0.6300 ca         1 066       0.035000
     15 C21         -3.5970     0.1320    -0.2560 ca         1 066      -0.166600
     16 C23         -3.9350     1.6030    -0.1090 c          1 066       0.614700
     17 N3          -4.4670     2.3230    -1.2090 n          1 066      -0.410800
     18 C25         -5.0160     3.6790    -0.9880 c3         1 066       0.086800
     19 C24         -4.0730     2.0180    -2.6040 c3         1 066       0.086800
     20 O4          -3.8280     2.1450     0.9840 o          1 066      -0.593100
     21 C20         -4.2520    -0.7080    -1.1870 ca         1 066      -0.035000
     22 C19         -3.9340    -2.0740    -1.2630 ca         1 066      -0.139000
     23 C18         -2.9870    -2.6320    -0.3900 ca         1 066       0.002000
     24 O2          -1.6190    -3.9440     1.9760 o          1 066      -0.521500
     25 C13          0.8410    -3.7690     0.2800 ca         1 066      -0.018000
     26 C11          2.0940    -3.7890    -0.3610 ca         1 066      -0.075300
     27 C12          2.5990    -5.1070    -0.9490 c3         1 066      -0.036800
     28 C7           3.1410    -0.2280    -0.0250 ca         1 066       0.448000
     29 N1           2.6430     1.0110     0.3680 nu         1 066      -0.965000
     30 C6           1.4790     1.6910     0.0170 ca         1 066       0.300000
     31 C27          1.1200     2.8520     0.7130 ca         1 066      -0.155000
     32 C5           0.6760     1.2390    -1.0420 ca         1 066      -0.180000
     33 C4          -0.4830     1.9400    -1.4020 ca         1 066      -0.064000
     34 C3          -0.8500     3.0960    -0.6950 ca         1 066      -0.212000
     35 C2          -0.0480     3.5530     0.3730 ca         1 066       0.170100
     36 O1          -0.3630     4.6780     1.1070 os         1 066      -0.334100
     37 C1          -1.5760     5.4200     0.8880 c3         1 066       0.140900
     38 HN4          7.0550     1.5870    -1.5050 hn         1 066       0.318000
     39 HN4A         6.5960    -0.0220    -2.0170 hn         1 066       0.318000
     40 H9           5.8250    -1.6660    -1.5260 h4         1 066       0.009100
     41 H15          0.7380    -0.4980     1.2260 ha         1 066       0.151000
     42 H22         -2.1690     0.1900     1.3720 ha         1 066       0.155000
     43 H25         -4.2000     4.3810    -0.7750 h1         1 066       0.043200
     44 H25A        -5.5580     4.0180    -1.8800 h1         1 066       0.043200
     45 H25B        -5.7120     3.6670    -0.1390 h1         1 066       0.043200
     46 H24         -4.9450     1.6510    -3.1610 h1         1 066       0.043200
     47 H24A        -3.7000     2.9280    -3.0930 h1         1 066       0.043200
     48 H24B        -3.2800     1.2630    -2.6380 h1         1 066       0.043200
     49 H20         -5.0290    -0.3190    -1.8400 ha         1 066       0.120000
     50 H19         -4.4400    -2.7070    -1.9870 ha         1 066       0.123000
     51 H18         -2.7650    -3.6970    -0.4500 ha         1 066       0.137000
     52 H13          0.2560    -4.6850     0.3460 ha         1 066       0.134000
     53 H12          3.5280    -5.4250    -0.4600 hc         1 066       0.048700
     54 H12A         1.8710    -5.9180    -0.8280 hc         1 066       0.048700
     55 H12B         2.8010    -5.0070    -2.0220 hc         1 066       0.048700
     56 HN1          3.4210     1.6540     0.5630 hn         1 066       0.543000
     57 H27          1.7370     3.2070     1.5320 ha         1 066       0.144000
     58 H5           0.9540     0.3520    -1.6040 ha         1 066       0.125000
     59 H4          -1.0890     1.5890    -2.2330 ha         1 066       0.109000
     60 H3          -1.7510     3.6240    -0.9910 ha         1 066       0.125000
     61 H1          -1.6080     5.8240    -0.1320 h1         1 066       0.048700
     62 H1A         -2.4560     4.7840     1.0440 h1         1 066       0.048700
     63 H1B         -1.6370     6.2630     1.5870 h1         1 066       0.048700
@<TRIPOS>BOND
     1     1     2 2   
     2     2     3 1   
     3     2     4 1   
     4     3    38 1   
     5     3    39 1   
     6     4     5 ar  
     7     4    28 ar  
     8     5     6 ar  
     9     5    40 1   
    10     6     7 ar  
    11     7     8 ar  
    12     7    26 ar  
    13     8     9 ar  
    14     8    28 ar  
    15     9    10 ar  
    16     9    41 1   
    17    10    11 1   
    18    10    25 ar  
    19    11    12 2   
    20    11    13 1   
    21    11    24 2   
    22    13    14 ar  
    23    13    23 ar  
    24    14    15 ar  
    25    14    42 1   
    26    15    16 1   
    27    15    21 ar  
    28    16    17 1   
    29    16    20 2   
    30    17    18 1   
    31    17    19 1   
    32    18    43 1   
    33    18    44 1   
    34    18    45 1   
    35    19    46 1   
    36    19    47 1   
    37    19    48 1   
    38    21    22 ar  
    39    21    49 1   
    40    22    23 ar  
    41    22    50 1   
    42    23    51 1   
    43    25    26 ar  
    44    25    52 1   
    45    26    27 1   
    46    27    53 1   
    47    27    54 1   
    48    27    55 1   
    49    28    29 1   
    50    29    30 1   
    51    29    56 1   
    52    30    31 ar  
    53    30    32 ar  
    54    31    35 ar  
    55    31    57 1   
    56    32    33 ar  
    57    32    58 1   
    58    33    34 ar  
    59    33    59 1   
    60    34    35 ar  
    61    34    60 1   
    62    35    36 1   
    63    36    37 1   
    64    37    61 1   
    65    37    62 1   
    66    37    63 1   
@<TRIPOS>SUBSTRUCTURE
     1 066         1 TEMP              0 ****  ****    0 ROOT
