@<TRIPOS>MOLECULE
068
   42    43     1     0     0
SMALL
bcc


@<TRIPOS>ATOM
      1 C19          7.7610     1.7100    -0.5260 c3         1 068      -0.195100
      2 C1           7.1950     0.3220    -0.4060 c          1 068       0.586700
      3 O2           7.9060    -0.6580    -0.5000 o          1 068      -0.535100
      4 C14          5.7340     0.1750    -0.1720 ca         1 068      -0.190600
      5 C15          5.1840    -1.1030    -0.0500 ca         1 068      -0.082500
      6 C16          3.8300    -1.2720     0.1660 ca         1 068      -0.140500
      7 C13          4.8840     1.2760    -0.0710 ca         1 068      -0.082500
      8 C12          3.5270     1.1050     0.1450 ca         1 068      -0.140500
      9 C11          2.9740    -0.1710     0.2670 cp         1 068       0.018000
     10 C8           1.5280    -0.3490     0.4880 cp         1 068      -0.071000
     11 C9           0.8060     0.5470     1.2790 ca         1 068      -0.111500
     12 C10         -0.5560     0.3840     1.4760 ca         1 068      -0.132500
     13 C7           0.8380    -1.4130    -0.0930 ca         1 068      -0.111500
     14 C6          -0.5260    -1.5690     0.1030 ca         1 068      -0.132500
     15 C5          -1.2480    -0.6740     0.8880 ca         1 068      -0.045300
     16 C4          -2.7360    -0.8050     1.0490 c3         1 068      -0.037100
     17 C3          -3.4840     0.0340     0.0120 c3         1 068      -0.111400
     18 C2          -5.0020    -0.0310     0.1470 c3         1 068       0.157100
     19 O1          -5.4780    -1.3650     0.0830 oh         1 068      -0.592800
     20 C17         -5.6900     0.8490    -0.8860 c3         1 068      -0.237400
     21 C18         -7.2220     0.8640    -0.7460 c          1 068       0.935600
     22 O19         -7.8940     0.7000    -1.7840 o          1 068      -0.840800
     23 O20         -7.6710     1.0660     0.4010 o          1 068      -0.840800
     24 H191         8.8400     1.6680    -0.6560 hc         1 068       0.058700
     25 H192         7.3260     2.2290    -1.3820 hc         1 068       0.058700
     26 H193         7.5350     2.3080     0.3580 hc         1 068       0.058700
     27 H15          5.8230    -1.9730    -0.1180 ha         1 068       0.137000
     28 H13          5.2660     2.2830    -0.1700 ha         1 068       0.137000
     29 H16          3.4360    -2.2740     0.2780 ha         1 068       0.138000
     30 H12          2.8900     1.9780     0.1960 ha         1 068       0.138000
     31 H9           1.3130     1.3700     1.7670 ha         1 068       0.124500
     32 H7           1.3620    -2.1190    -0.7250 ha         1 068       0.124500
     33 H10         -1.0900     1.0900     2.1010 ha         1 068       0.135500
     34 H6          -1.0370    -2.4000    -0.3680 ha         1 068       0.135500
     35 H41C        -3.0290    -1.8530     0.9550 hc         1 068       0.054700
     36 H42C        -3.0300    -0.4820     2.0520 hc         1 068       0.054700
     37 H31C        -3.1740     1.0790     0.1060 hc         1 068       0.034700
     38 H32C        -3.1880    -0.2800    -0.9960 hc         1 068       0.034700
     39 H2          -5.2800     0.3250     1.1440 h1         1 068       0.083700
     40 H1          -5.3070    -1.6970    -0.8050 ho         1 068       0.384000
     41 H171        -5.3250     1.8750    -0.7650 hc         1 068       0.020200
     42 H172        -5.3930     0.5340    -1.8920 hc         1 068       0.020200
@<TRIPOS>BOND
     1     1     2 1   
     2     1    24 1   
     3     1    25 1   
     4     1    26 1   
     5     2     3 2   
     6     2     4 1   
     7     4     5 ar  
     8     4     7 ar  
     9     5     6 ar  
    10     5    27 1   
    11     6     9 ar  
    12     6    29 1   
    13     7     8 ar  
    14     7    28 1   
    15     8     9 ar  
    16     8    30 1   
    17     9    10 1   
    18    10    11 ar  
    19    10    13 ar  
    20    11    12 ar  
    21    11    31 1   
    22    12    15 ar  
    23    12    33 1   
    24    13    14 ar  
    25    13    32 1   
    26    14    15 ar  
    27    14    34 1   
    28    15    16 1   
    29    16    17 1   
    30    16    35 1   
    31    16    36 1   
    32    17    18 1   
    33    17    37 1   
    34    17    38 1   
    35    18    19 1   
    36    18    20 1   
    37    18    39 1   
    38    19    40 1   
    39    20    21 1   
    40    20    41 1   
    41    20    42 1   
    42    21    22 1   
    43    21    23 1   
@<TRIPOS>SUBSTRUCTURE
     1 068         1 TEMP              0 ****  ****    0 ROOT
