@<TRIPOS>MOLECULE
068
   42    43     1     0     0
SMALL
No Charge or Current Charge


@<TRIPOS>ATOM
      1 C19          8.0150     1.6730    -0.3750 c3         1 068      -0.195100
      2 C1           7.3700     0.2850    -0.3370 c          1 068       0.586700
      3 O2           8.0740    -0.7100    -0.4680 o          1 068      -0.535100
      4 C14          5.8700     0.1580    -0.1390 ca         1 068      -0.190600
      5 C15          5.2730    -1.1220    -0.1020 ca         1 068      -0.064500
      6 C16          3.8870    -1.2640     0.0800 ca         1 068      -0.122500
      7 C13          5.0380     1.2910     0.0130 ca         1 068      -0.064500
      8 C12          3.6520     1.1420     0.1960 ca         1 068      -0.122500
      9 C11          3.0460    -0.1360     0.2340 cp         1 068       0.018000
     10 C8           1.5680    -0.2900     0.4290 cp         1 068      -0.071000
     11 C9           0.8390     0.6030     1.2540 ca         1 068      -0.093500
     12 C10         -0.5470     0.4590     1.4370 ca         1 068      -0.114500
     13 C7           0.8480    -1.3330    -0.2070 ca         1 068      -0.093500
     14 C6          -0.5380    -1.4770    -0.0250 ca         1 068      -0.114500
     15 C5          -1.2440    -0.5830     0.7990 ca         1 068      -0.045300
     16 C4          -2.7460    -0.7380     0.9930 c3         1 068      -0.037100
     17 C3          -3.5520    -0.0010    -0.1040 c3         1 068      -0.111400
     18 C2          -5.0880    -0.0720     0.0840 c3         1 068       0.180300
     19 O1          -5.5220    -1.4300    -0.0280 oh         1 068      -0.655000
     20 C17         -5.8500     0.7590    -0.9670 c3         1 068      -0.237400
     21 C18         -7.3420     0.7460    -0.6290 c          1 068       0.725000
     22 O19         -7.9940    -0.2160    -1.0040 o          1 068      -0.735500
     23 O20         -7.7820     1.6320     0.0860 o          1 068      -0.735500
     24 H191         9.1000     1.6290    -0.5230 hc         1 068       0.058700
     25 H192         7.5290     2.2720    -1.1540 hc         1 068       0.058700
     26 H193         7.7570     2.2130     0.5420 hc         1 068       0.058700
     27 H15          5.8810    -2.0180    -0.2130 ha         1 068       0.119000
     28 H13          5.4470     2.2980    -0.0110 ha         1 068       0.119000
     29 H16          3.4640    -2.2640     0.1160 ha         1 068       0.120000
     30 H12          3.0400     2.0340     0.2960 ha         1 068       0.120000
     31 H9           1.3540     1.4100     1.7700 ha         1 068       0.106500
     32 H7           1.3660    -2.0310    -0.8610 ha         1 068       0.106500
     33 H10         -1.0790     1.1590     2.0770 ha         1 068       0.117500
     34 H6          -1.0650    -2.2830    -0.5310 ha         1 068       0.117500
     35 H41C        -3.0130    -1.8020     0.9900 hc         1 068       0.054700
     36 H42C        -3.0410    -0.3520     1.9760 hc         1 068       0.054700
     37 H31C        -3.2450     1.0520    -0.1080 hc         1 068       0.034700
     38 H32C        -3.2830    -0.4100    -1.0860 hc         1 068       0.034700
     39 H2          -5.3320     0.3270     1.0810 h1         1 068       0.083700
     40 H1          -6.4380    -1.3810    -0.3890 ho         1 068       0.423000
     41 H171        -5.4540     1.7810    -0.9110 hc         1 068       0.020200
     42 H172        -5.6660     0.2730    -1.9340 hc         1 068       0.020200
@<TRIPOS>BOND
     1     1     2 1   
     2     1    24 1   
     3     1    25 1   
     4     1    26 1   
     5     2     3 2   
     6     2     4 1   
     7     4     5 ar  
     8     4     7 ar  
     9     5     6 ar  
    10     5    27 1   
    11     6     9 ar  
    12     6    29 1   
    13     7     8 ar  
    14     7    28 1   
    15     8     9 ar  
    16     8    30 1   
    17     9    10 1   
    18    10    11 ar  
    19    10    13 ar  
    20    11    12 ar  
    21    11    31 1   
    22    12    15 ar  
    23    12    33 1   
    24    13    14 ar  
    25    13    32 1   
    26    14    15 ar  
    27    14    34 1   
    28    15    16 1   
    29    16    17 1   
    30    16    35 1   
    31    16    36 1   
    32    17    18 1   
    33    17    37 1   
    34    17    38 1   
    35    18    19 1   
    36    18    20 1   
    37    18    39 1   
    38    19    40 1   
    39    20    21 1   
    40    20    41 1   
    41    20    42 1   
    42    21    22 1   
    43    21    23 1   
@<TRIPOS>SUBSTRUCTURE
     1 068         1 TEMP              0 ****  ****    0 ROOT
