@<TRIPOS>MOLECULE
069
   18    18     1     0     0
SMALL
No Charge or Current Charge


@<TRIPOS>ATOM
      1 C3          -2.3460     0.3030    -0.1460 ca         1 069       0.135100
      2 O3          -3.3900     1.1750    -0.2510 oh         1 069      -0.531100
      3 C2          -1.0230     0.7750    -0.1630 ca         1 069      -0.157000
      4 C1           0.0700    -0.1210    -0.0560 ca         1 069      -0.111600
      5 C            1.4910     0.4220    -0.0790 c          1 069       0.617700
      6 O            1.7280     1.6240    -0.1290 o          1 069      -0.571100
      7 N            2.5190    -0.5160    -0.0250 ns         1 069      -0.390400
      8 C6          -0.2080    -1.5060     0.0730 ca         1 069      -0.127000
      9 C5          -1.5340    -1.9730     0.0900 ca         1 069      -0.081000
     10 C4          -2.6020    -1.0690    -0.0200 ca         1 069      -0.124000
     11 O2           3.8930    -0.1380    -0.2920 oh         1 069      -0.415100
     12 H3          -3.0320     2.0850    -0.3300 ho         1 069       0.470000
     13 H2          -0.8370     1.8420    -0.2620 ha         1 069       0.135000
     14 H4          -3.6270    -1.4320    -0.0060 ha         1 069       0.133000
     15 H6           0.5910    -2.2370     0.1660 ha         1 069       0.116000
     16 H            2.2960    -1.5020    -0.1430 hn         1 069       0.342500
     17 HA           4.3920    -0.5210     0.4670 ho         1 069       0.441000
     18 H5          -1.7340    -3.0380     0.1900 ha         1 069       0.120000
@<TRIPOS>BOND
     1     1     2 1   
     2     1     3 ar  
     3     1    10 ar  
     4     2    12 1   
     5     3     4 ar  
     6     3    13 1   
     7     4     5 1   
     8     4     8 ar  
     9     5     6 2   
    10     5     7 1   
    11     7    11 1   
    12     7    16 1   
    13     8     9 ar  
    14     8    15 1   
    15     9    10 ar  
    16     9    18 1   
    17    10    14 1   
    18    11    17 1   
@<TRIPOS>SUBSTRUCTURE
     1 069         1 TEMP              0 ****  ****    0 ROOT
