@<TRIPOS>MOLECULE
069
   18    18     1     0     0
SMALL
abcg2


@<TRIPOS>ATOM
      1 C3          -2.2360     0.3260     0.0100 ca         1 069       0.135100
      2 O3          -3.2450     1.2080     0.1410 oh         1 069      -0.531100
      3 C2          -0.9090     0.7210    -0.1100 ca         1 069      -0.157000
      4 C1           0.0970    -0.2340    -0.2280 ca         1 069      -0.111600
      5 C            1.4990     0.2600    -0.3820 c          1 069       0.617700
      6 O            1.7620     1.3150    -0.9340 o          1 069      -0.571100
      7 N            2.4280    -0.5390     0.1680 ns         1 069      -0.390400
      8 C6          -0.2240    -1.5870    -0.2560 ca         1 069      -0.127000
      9 C5          -1.5540    -1.9720    -0.1470 ca         1 069      -0.081000
     10 C4          -2.5590    -1.0300    -0.0100 ca         1 069      -0.124000
     11 O2           3.7490    -0.2990    -0.0450 oh         1 069      -0.415100
     12 H3          -2.9080     2.1110     0.1330 ho         1 069       0.470000
     13 H2          -0.6550     1.7760    -0.1060 ha         1 069       0.135000
     14 H4          -3.5940    -1.3370     0.0760 ha         1 069       0.133000
     15 H6           0.5360    -2.3450    -0.3890 ha         1 069       0.116000
     16 H            2.2170    -1.4080     0.6360 hn         1 069       0.342500
     17 HA           4.0540     0.2320     0.7040 ho         1 069       0.441000
     18 H5          -1.8110    -3.0230    -0.1790 ha         1 069       0.120000
@<TRIPOS>BOND
     1     1     2 1   
     2     1     3 ar  
     3     1    10 ar  
     4     2    12 1   
     5     3     4 ar  
     6     3    13 1   
     7     4     5 1   
     8     4     8 ar  
     9     5     6 2   
    10     5     7 1   
    11     7    11 1   
    12     7    16 1   
    13     8     9 ar  
    14     8    15 1   
    15     9    10 ar  
    16     9    18 1   
    17    10    14 1   
    18    11    17 1   
@<TRIPOS>SUBSTRUCTURE
     1 069         1 TEMP              0 ****  ****    0 ROOT
