@<TRIPOS>MOLECULE
06A
   53    57     1     0     0
SMALL
abcg2


@<TRIPOS>ATOM
      1 C1         -31.2280    45.2300    -9.6870 cc         1 06A       0.741800
      2 C2         -29.3690    44.0250    -9.3660 cd         1 06A       0.192400
      3 C3         -29.6070    43.8200    -7.9990 cc         1 06A      -0.361600
      4 C4         -28.5030    43.0650    -7.5450 cc         1 06A       0.334900
      5 C5         -27.4330    43.4180   -10.8950 c5         1 06A       0.103300
      6 C6         -28.1510    42.8140   -12.1070 c5         1 06A      -0.096900
      7 C7         -27.3040    43.2930   -13.3030 c5         1 06A      -0.079400
      8 C8         -26.5200    44.5450   -12.8110 c5         1 06A      -0.079400
      9 C9         -27.0090    44.8090   -11.3800 c5         1 06A      -0.096900
     10 C10        -32.0710    45.8890   -11.8810 c3         1 06A       0.160500
     11 C11        -32.7040    44.5650   -12.3370 c          1 06A       0.589100
     12 C12        -32.6380    42.8470   -14.1960 cy         1 06A       0.119000
     13 C13        -31.4980    43.1140   -15.2010 cy         1 06A      -0.115000
     14 C14        -31.1390    44.3900   -14.3930 cy         1 06A       0.119000
     15 C15        -31.7250    43.2420   -16.7240 cy         1 06A      -0.100400
     16 C16        -30.3320    42.6350   -16.9110 cy         1 06A       0.172300
     17 C17        -30.3950    42.0720   -15.4900 cy         1 06A      -0.100400
     18 C18        -32.8450    47.0640   -12.4750 c3         1 06A      -0.097100
     19 N1         -30.1580    44.6990   -10.2330 nd         1 06A      -0.719100
     20 N2         -27.6600    42.8310    -8.5330 nd         1 06A      -0.520800
     21 O1         -33.6290    44.0430   -11.7080 o          1 06A      -0.614100
     22 F          -30.1950    41.6970   -17.9470 f          1 06A      -0.257000
     23 N5         -32.2250    44.0460   -13.4640 nj         1 06A      -0.421800
     24 N4         -32.0800    45.9750   -10.4300 nu         1 06A      -0.866400
     25 N          -31.5350    45.0990    -8.3530 ns         1 06A      -0.452400
     26 N3         -28.1950    43.4190    -9.6530 na         1 06A       0.112800
     27 C          -30.7780    44.3860    -7.4100 c          1 06A       0.632600
     28 O          -31.1570    44.3180    -6.2440 o          1 06A      -0.540000
     29 H1         -28.2970    42.6940    -6.5530 h4         1 06A       0.050100
     30 H2         -26.5440    42.8290   -10.6680 h1         1 06A       0.084700
     31 H3         -29.1620    43.2200   -12.1580 hc         1 06A       0.061450
     32 H4         -28.2270    41.7290   -12.0420 hc         1 06A       0.061450
     33 H5         -27.9310    43.5280   -14.1620 hc         1 06A       0.042950
     34 H6         -26.6110    42.5130   -13.6190 hc         1 06A       0.042950
     35 H7         -25.4490    44.3380   -12.8090 hc         1 06A       0.042950
     36 H8         -26.6800    45.4090   -13.4560 hc         1 06A       0.042950
     37 H9         -26.2500    45.2560   -10.7380 hc         1 06A       0.061450
     38 H10        -27.8820    45.4640   -11.3840 hc         1 06A       0.061450
     39 H11        -31.0350    45.9280   -12.2090 h1         1 06A       0.095700
     40 H12        -33.6470    42.9170   -14.6080 h1         1 06A       0.063700
     41 H13        -32.5400    41.9280   -13.6160 h1         1 06A       0.063700
     42 H14        -30.1520    44.3940   -13.9290 h1         1 06A       0.063700
     43 H15        -31.3010    45.3300   -14.9240 h1         1 06A       0.063700
     44 H16        -31.9180    44.2320   -17.1350 hc         1 06A       0.073200
     45 H17        -32.4920    42.5400   -17.0570 hc         1 06A       0.073200
     46 H18        -29.5460    43.3760   -17.0540 h1         1 06A       0.064700
     47 H19        -30.8190    41.0660   -15.5020 hc         1 06A       0.073200
     48 H20        -29.4920    42.0890   -14.8840 hc         1 06A       0.073200
     49 H21        -32.3800    48.0050   -12.1780 hc         1 06A       0.053700
     50 H22        -32.8480    47.0030   -13.5630 hc         1 06A       0.053700
     51 H23        -33.8790    47.0550   -12.1250 hc         1 06A       0.053700
     52 H24        -32.9800    46.1760   -10.0180 hn         1 06A       0.494000
     53 H25        -32.3810    45.5280    -8.0000 hn         1 06A       0.327500
@<TRIPOS>BOND
     1     1    19 2   
     2     1    24 1   
     3     1    25 1   
     4     2     3 2   
     5     2    19 1   
     6     2    26 1   
     7     3     4 1   
     8     3    27 1   
     9     4    20 2   
    10     4    29 1   
    11     5     6 1   
    12     5     9 1   
    13     5    26 1   
    14     5    30 1   
    15     6     7 1   
    16     6    31 1   
    17     6    32 1   
    18     7     8 1   
    19     7    33 1   
    20     7    34 1   
    21     8     9 1   
    22     8    35 1   
    23     8    36 1   
    24     9    37 1   
    25     9    38 1   
    26    10    11 1   
    27    10    18 1   
    28    10    24 1   
    29    10    39 1   
    30    11    21 2   
    31    11    23 1   
    32    12    13 1   
    33    12    23 1   
    34    12    40 1   
    35    12    41 1   
    36    13    14 1   
    37    13    15 1   
    38    13    17 1   
    39    14    23 1   
    40    14    42 1   
    41    14    43 1   
    42    15    16 1   
    43    15    44 1   
    44    15    45 1   
    45    16    17 1   
    46    16    22 1   
    47    16    46 1   
    48    17    47 1   
    49    17    48 1   
    50    18    49 1   
    51    18    50 1   
    52    18    51 1   
    53    20    26 1   
    54    24    52 1   
    55    25    27 1   
    56    25    53 1   
    57    27    28 2   
@<TRIPOS>SUBSTRUCTURE
     1 06A         1 TEMP              0 ****  ****    0 ROOT
