@<TRIPOS>MOLECULE
06A
   53    57     1     0     0
SMALL
No Charge or Current Charge


@<TRIPOS>ATOM
      1 C1         -31.3800    44.9470    -9.7510 cc         1 06A       0.741800
      2 C2         -29.2830    44.0730    -9.6850 cd         1 06A       0.192400
      3 C3         -29.5010    43.6800    -8.4190 cc         1 06A      -0.361600
      4 C4         -28.3360    43.0450    -7.9860 cc         1 06A       0.334900
      5 C5         -27.2200    43.8130   -11.2480 c5         1 06A       0.103300
      6 C6         -27.6080    42.8100   -12.3710 c5         1 06A      -0.096900
      7 C7         -27.0260    43.4390   -13.6810 c5         1 06A      -0.079400
      8 C8         -26.5380    44.8590   -13.2670 c5         1 06A      -0.079400
      9 C9         -27.3820    45.1570   -12.0060 c5         1 06A      -0.096900
     10 C10        -32.4040    45.9840   -11.8280 c3         1 06A       0.160500
     11 C11        -32.6900    44.7790   -12.8000 c          1 06A       0.589100
     12 C12        -32.7960    43.9730   -15.0030 cy         1 06A       0.119000
     13 C13        -31.4450    43.2680   -14.8980 cy         1 06A      -0.115000
     14 C14        -30.8010    44.2350   -13.9000 cy         1 06A       0.119000
     15 C15        -30.6720    43.0820   -16.2030 cy         1 06A      -0.100400
     16 C16        -30.2760    41.6940   -15.5050 cy         1 06A       0.172300
     17 C17        -31.4770    41.8070   -14.4510 cy         1 06A      -0.100400
     18 C18        -33.4110    47.1310   -12.0480 c3         1 06A      -0.097100
     19 N1         -30.2520    44.7470   -10.4190 nd         1 06A      -0.719100
     20 N2         -27.3830    43.0090    -8.9050 nd         1 06A      -0.520800
     21 O1         -33.3400    43.8280   -12.3630 o          1 06A      -0.614100
     22 F          -30.2950    40.5990   -16.3110 f          1 06A      -0.257000
     23 N5         -32.1110    45.0130   -14.0950 nj         1 06A      -0.421800
     24 N4         -32.3830    45.6080   -10.3800 nu         1 06A      -0.866400
     25 N          -31.6210    44.5600    -8.4720 ns         1 06A      -0.452400
     26 N3         -27.9750    43.6640    -9.9920 na         1 06A       0.112800
     27 C          -30.7280    43.9060    -7.7020 c          1 06A       0.632600
     28 O          -30.9540    43.5650    -6.5530 o          1 06A      -0.540000
     29 H1         -28.1480    42.6010    -7.0170 h4         1 06A       0.050100
     30 H2         -26.1560    43.6780   -11.0070 h1         1 06A       0.084700
     31 H3         -28.6950    42.6950   -12.4420 hc         1 06A       0.061450
     32 H4         -27.2020    41.8100   -12.1780 hc         1 06A       0.061450
     33 H5         -27.7930    43.4970   -14.4610 hc         1 06A       0.042950
     34 H6         -26.2040    42.8420   -14.0910 hc         1 06A       0.042950
     35 H7         -25.4660    44.8580   -13.0350 hc         1 06A       0.042950
     36 H8         -26.6940    45.6010   -14.0590 hc         1 06A       0.042950
     37 H9         -26.9940    46.0080   -11.4340 hc         1 06A       0.061450
     38 H10        -28.4230    45.3780   -12.2640 hc         1 06A       0.061450
     39 H11        -31.4170    46.3750   -12.1120 h1         1 06A       0.095700
     40 H12        -33.0230    44.3770   -15.9960 h1         1 06A       0.063700
     41 H13        -33.6600    43.4270   -14.6090 h1         1 06A       0.063700
     42 H14        -30.6160    43.8220   -12.9010 h1         1 06A       0.063700
     43 H15        -29.9270    44.7830   -14.2700 h1         1 06A       0.063700
     44 H16        -29.8480    43.7750   -16.4050 hc         1 06A       0.073200
     45 H17        -31.2920    42.9730   -17.0990 hc         1 06A       0.073200
     46 H18        -29.2970    41.7450   -15.0140 h1         1 06A       0.064700
     47 H19        -32.3790    41.2540   -14.7350 hc         1 06A       0.073200
     48 H20        -31.2260    41.5930   -13.4060 hc         1 06A       0.073200
     49 H21        -33.1660    47.9890   -11.4110 hc         1 06A       0.053700
     50 H22        -33.3880    47.4660   -13.0920 hc         1 06A       0.053700
     51 H23        -34.4320    46.8040   -11.8160 hc         1 06A       0.053700
     52 H24        -33.2840    45.4930    -9.9260 hn         1 06A       0.494000
     53 H25        -32.5040    44.7790    -8.0440 hn         1 06A       0.327500
@<TRIPOS>BOND
     1     1    19 2   
     2     1    24 1   
     3     1    25 1   
     4     2     3 2   
     5     2    19 1   
     6     2    26 1   
     7     3     4 1   
     8     3    27 1   
     9     4    20 2   
    10     4    29 1   
    11     5     6 1   
    12     5     9 1   
    13     5    26 1   
    14     5    30 1   
    15     6     7 1   
    16     6    31 1   
    17     6    32 1   
    18     7     8 1   
    19     7    33 1   
    20     7    34 1   
    21     8     9 1   
    22     8    35 1   
    23     8    36 1   
    24     9    37 1   
    25     9    38 1   
    26    10    11 1   
    27    10    18 1   
    28    10    24 1   
    29    10    39 1   
    30    11    21 2   
    31    11    23 1   
    32    12    13 1   
    33    12    23 1   
    34    12    40 1   
    35    12    41 1   
    36    13    14 1   
    37    13    15 1   
    38    13    17 1   
    39    14    23 1   
    40    14    42 1   
    41    14    43 1   
    42    15    16 1   
    43    15    44 1   
    44    15    45 1   
    45    16    17 1   
    46    16    22 1   
    47    16    46 1   
    48    17    47 1   
    49    17    48 1   
    50    18    49 1   
    51    18    50 1   
    52    18    51 1   
    53    20    26 1   
    54    24    52 1   
    55    25    27 1   
    56    25    53 1   
    57    27    28 2   
@<TRIPOS>SUBSTRUCTURE
     1 06A         1 TEMP              0 ****  ****    0 ROOT
