@<TRIPOS>MOLECULE
06B
   22    22     1     0     0
SMALL
No Charge or Current Charge


@<TRIPOS>ATOM
      1 Br          -2.8920     0.2610     0.1200 br         1 06B      -0.148100
      2 C10         -1.0000     0.5700     0.0350 ca         1 06B      -0.076900
      3 C12         -0.0800    -0.4980     0.0950 ca         1 06B       0.158100
      4 O13         -0.5340    -1.7910     0.2020 os         1 06B      -0.343100
      5 C14         -0.8860    -2.5070    -0.9930 c3         1 06B       0.149900
      6 C4           1.3040    -0.2410     0.0610 ca         1 06B      -0.156600
      7 C2           2.2750    -1.3700     0.1420 c          1 06B       0.737600
      8 O3           2.6300    -1.7450     1.2510 o          1 06B      -0.705000
      9 O1           2.6720    -1.8640    -0.9050 o          1 06B      -0.705000
     10 C9          -0.5340     1.8890    -0.0740 ca         1 06B      -0.079000
     11 C8           0.8450     2.1470    -0.1180 ca         1 06B      -0.227000
     12 C5           1.7720     1.0820    -0.0480 ca         1 06B       0.165100
     13 O6           3.1360     1.2990    -0.0810 os         1 06B      -0.302100
     14 C7           3.7050     2.6140    -0.1910 c3         1 06B       0.151900
     15 H1          -1.2320    -3.5180    -0.7440 h1         1 06B       0.034367
     16 H2          -1.6890    -1.9920    -1.5350 h1         1 06B       0.034367
     17 H3          -0.0200    -2.5940    -1.6610 h1         1 06B       0.034367
     18 H5          -1.2420     2.7140    -0.1200 ha         1 06B       0.101000
     19 H6           1.1750     3.1780    -0.2020 ha         1 06B       0.098000
     20 H7           3.3830     3.1010    -1.1200 h1         1 06B       0.025367
     21 H8           3.4050     3.2400     0.6590 h1         1 06B       0.025367
     22 H9           4.8000     2.5530    -0.1990 h1         1 06B       0.025367
@<TRIPOS>BOND
     1     1     2 1   
     2     2     3 ar  
     3     2    10 ar  
     4     3     4 1   
     5     3     6 ar  
     6     4     5 1   
     7     5    15 1   
     8     5    16 1   
     9     5    17 1   
    10     6     7 1   
    11     6    12 ar  
    12     7     8 1   
    13     7     9 1   
    14    10    11 ar  
    15    10    18 1   
    16    11    12 ar  
    17    11    19 1   
    18    12    13 1   
    19    13    14 1   
    20    14    20 1   
    21    14    21 1   
    22    14    22 1   
@<TRIPOS>SUBSTRUCTURE
     1 06B         1 TEMP              0 ****  ****    0 ROOT
