@<TRIPOS>MOLECULE
06B
   22    22     1     0     0
SMALL
abcg2


@<TRIPOS>ATOM
      1 BR          -2.8540     0.2810     0.1840 br         1 06B      -0.148100
      2 C10         -1.0000     0.6080     0.0560 ca         1 06B      -0.076900
      3 C12         -0.1050    -0.4640     0.1060 ca         1 06B       0.158100
      4 O13         -0.5640    -1.7350     0.2360 os         1 06B      -0.343100
      5 C14         -0.7580    -2.4200    -0.9990 c3         1 06B       0.149900
      6 C4           1.2600    -0.2320     0.0410 ca         1 06B      -0.156600
      7 C2           2.2510    -1.3890     0.1370 c          1 06B       0.737600
      8 O3           2.5610    -1.7330     1.2880 o          1 06B      -0.705000
      9 O1           2.6490    -1.8610    -0.9410 o          1 06B      -0.705000
     10 C9          -0.5330     1.9050    -0.0510 ca         1 06B      -0.079000
     11 C8           0.8340     2.1470    -0.1190 ca         1 06B      -0.227000
     12 C5           1.7260     1.0810    -0.0670 ca         1 06B       0.165100
     13 O6           3.0660     1.2150    -0.1120 os         1 06B      -0.302100
     14 C7           3.6130     2.5130    -0.2190 c3         1 06B       0.151900
     15 H1          -1.0850    -3.4290    -0.7550 h1         1 06B       0.034367
     16 H2          -1.5280    -1.9420    -1.6100 h1         1 06B       0.034367
     17 H3           0.1700    -2.4730    -1.5690 h1         1 06B       0.034367
     18 H5          -1.2200     2.7390    -0.0840 ha         1 06B       0.101000
     19 H6           1.1730     3.1700    -0.2040 ha         1 06B       0.098000
     20 H7           3.2940     3.0160    -1.1360 h1         1 06B       0.025367
     21 H8           3.3490     3.1400     0.6360 h1         1 06B       0.025367
     22 H9           4.6940     2.3930    -0.2450 h1         1 06B       0.025367
@<TRIPOS>BOND
     1     1     2 1   
     2     2     3 ar  
     3     2    10 ar  
     4     3     4 1   
     5     3     6 ar  
     6     4     5 1   
     7     5    15 1   
     8     5    16 1   
     9     5    17 1   
    10     6     7 1   
    11     6    12 ar  
    12     7     8 1   
    13     7     9 1   
    14    10    11 ar  
    15    10    18 1   
    16    11    12 ar  
    17    11    19 1   
    18    12    13 1   
    19    13    14 1   
    20    14    20 1   
    21    14    21 1   
    22    14    22 1   
@<TRIPOS>SUBSTRUCTURE
     1 06B         1 TEMP              0 ****  ****    0 ROOT
