@<TRIPOS>MOLECULE
06C
    5     4     1     0     0
SMALL
No Charge or Current Charge


@<TRIPOS>ATOM
      1 C1          -1.9930     0.0550    -0.0070 c3         1 06C       0.086900
      2 H           -2.2970    -0.9980    -0.0040 h1         1 06C       0.065700
      3 HA          -2.3650     0.5770    -0.8980 h1         1 06C       0.065700
      4 HB          -2.3030     0.5650     0.9140 h1         1 06C       0.065700
      5 I1           0.2490     0.1090    -0.0830 i          1 06C      -0.284000
@<TRIPOS>BOND
     1     1     2 1   
     2     1     3 1   
     3     1     4 1   
     4     1     5 1   
@<TRIPOS>SUBSTRUCTURE
     1 06C         1 TEMP              0 ****  ****    0 ROOT
