@<TRIPOS>MOLECULE
06C
    5     4     1     0     0
SMALL
abcg2


@<TRIPOS>ATOM
      1 C1          -1.9750     0.0560    -0.0080 c3         1 06C       0.086900
      2 H           -2.2830    -0.9840    -0.0040 h1         1 06C       0.065700
      3 HA          -2.3500     0.5700    -0.8860 h1         1 06C       0.065700
      4 HB          -2.2890     0.5580     0.9010 h1         1 06C       0.065700
      5 I1           0.1880     0.1070    -0.0810 i          1 06C      -0.284000
@<TRIPOS>BOND
     1     1     2 1   
     2     1     3 1   
     3     1     4 1   
     4     1     5 1   
@<TRIPOS>SUBSTRUCTURE
     1 06C         1 TEMP              0 ****  ****    0 ROOT
