@<TRIPOS>MOLECULE
06D
   36    37     1     0     0
SMALL
No Charge or Current Charge


@<TRIPOS>ATOM
      1 C13         -7.2320     3.5070     6.9150 c5         1 06D       0.165000
      2 C14         -5.8210     4.0360     7.2330 ca         1 06D      -0.121300
      3 C15         -5.4540     5.3970     7.1030 ca         1 06D      -0.062000
      4 C03         -9.7790     6.1900     8.2380 c3         1 06D      -0.157400
      5 C04        -11.2360     5.6920     8.1210 c3         1 06D      -0.085100
      6 C16         -4.1490     5.8230     7.4080 ca         1 06D      -0.170500
      7 C17         -3.1850     4.8930     7.8490 ca         1 06D       0.139100
      8 C19         -1.4250     6.6100     8.0600 c3         1 06D       0.148900
      9 C20         -3.5420     3.5440     7.9800 ca         1 06D      -0.170500
     10 C21         -4.8470     3.1190     7.6760 ca         1 06D      -0.062000
     11 C22         -7.2660     3.1080     5.4100 c5         1 06D      -0.088400
     12 C23         -7.6690     4.4280     4.7050 c5         1 06D      -0.094400
     13 C24         -8.7540     4.9860     5.6610 c5         1 06D       0.106000
     14 N12         -8.2150     4.6120     6.9890 n          1 06D      -0.420800
     15 O01         -8.4700     4.4590     9.2620 o          1 06D      -0.599100
     16 O18         -1.8890     5.2520     8.1620 os         1 06D      -0.342100
     17 H1          -7.5000     2.6620     7.5660 h1         1 06D       0.078700
     18 H2          -6.1740     6.1380     6.7650 ha         1 06D       0.111500
     19 H3          -9.5980     6.8700     7.4000 hc         1 06D       0.060200
     20 H4          -9.6750     6.7330     9.1850 hc         1 06D       0.060200
     21 H5         -11.9330     6.5380     8.1460 hc         1 06D       0.039700
     22 H6         -11.3910     5.1490     7.1810 hc         1 06D       0.039700
     23 H7         -11.4830     5.0190     8.9520 hc         1 06D       0.039700
     24 H8          -3.9070     6.8750     7.2940 ha         1 06D       0.120000
     25 H9          -0.3700     6.6740     8.3540 h1         1 06D       0.039367
     26 H10         -1.5120     6.9760     7.0290 h1         1 06D       0.039367
     27 H11         -2.0020     7.2700     8.7190 h1         1 06D       0.039367
     28 H12         -2.8040     2.8220     8.3200 ha         1 06D       0.120000
     29 H13         -5.1020     2.0670     7.7840 ha         1 06D       0.111500
     30 H14         -8.0240     2.3360     5.2380 hc         1 06D       0.056700
     31 H15         -6.3130     2.7050     5.0480 hc         1 06D       0.056700
     32 H16         -6.8190     5.1140     4.6230 hc         1 06D       0.055700
     33 H17         -8.0510     4.2670     3.6910 hc         1 06D       0.055700
     34 H18         -8.8680     6.0690     5.5330 h1         1 06D       0.042200
     35 H19         -9.7270     4.5060     5.4890 h1         1 06D       0.042200
     36 C02         -8.7790     5.0190     8.2170 c          1 06D       0.604100
@<TRIPOS>BOND
     1     1     2 1   
     2     1    11 1   
     3     1    14 1   
     4     1    17 1   
     5     2     3 ar  
     6     2    10 ar  
     7     3     6 ar  
     8     3    18 1   
     9     4     5 1   
    10     4    19 1   
    11     4    20 1   
    12     4    36 1   
    13     5    21 1   
    14     5    22 1   
    15     5    23 1   
    16     6     7 ar  
    17     6    24 1   
    18     7     9 ar  
    19     7    16 1   
    20     8    16 1   
    21     8    25 1   
    22     8    26 1   
    23     8    27 1   
    24     9    10 ar  
    25     9    28 1   
    26    10    29 1   
    27    11    12 1   
    28    11    30 1   
    29    11    31 1   
    30    12    13 1   
    31    12    32 1   
    32    12    33 1   
    33    13    14 1   
    34    13    34 1   
    35    13    35 1   
    36    14    36 1   
    37    15    36 2   
@<TRIPOS>SUBSTRUCTURE
     1 06D         1 TEMP              0 ****  ****    0 ROOT
