@<TRIPOS>MOLECULE
06D
   36    37     1     0     0
SMALL
abcg2


@<TRIPOS>ATOM
      1 C13         -7.2240     3.6600     6.9580 c5         1 06D       0.165000
      2 C14         -5.8270     4.1290     7.2950 ca         1 06D      -0.121300
      3 C15         -5.4270     5.4510     7.1930 ca         1 06D      -0.062000
      4 C03         -9.8740     6.1380     8.1170 c3         1 06D      -0.157400
      5 C04        -11.2210     5.4140     8.0680 c3         1 06D      -0.085100
      6 C16         -4.1150     5.8390     7.4560 ca         1 06D      -0.170500
      7 C17         -3.1720     4.8880     7.8320 ca         1 06D       0.139100
      8 C19         -1.4320     6.4900     7.9960 c3         1 06D       0.148900
      9 C20         -3.5650     3.5520     7.9460 ca         1 06D      -0.170500
     10 C21         -4.8710     3.1880     7.6810 ca         1 06D      -0.062000
     11 C22         -7.3370     3.1680     5.5090 c5         1 06D      -0.088400
     12 C23         -7.6790     4.4360     4.7380 c5         1 06D      -0.094400
     13 C24         -8.6370     5.1640     5.6740 c5         1 06D       0.106000
     14 N12         -8.2190     4.7230     7.0050 n          1 06D      -0.420800
     15 O01         -8.3410     4.7000     9.2500 o          1 06D      -0.599100
     16 O18         -1.8800     5.1560     8.1070 os         1 06D      -0.342100
     17 H1          -7.5010     2.8660     7.6560 h1         1 06D       0.078700
     18 H2          -6.1410     6.2150     6.9110 ha         1 06D       0.111500
     19 H3          -9.7850     6.8110     7.2650 hc         1 06D       0.060200
     20 H4          -9.8210     6.7510     9.0170 hc         1 06D       0.060200
     21 H5         -12.0390     6.1340     8.0740 hc         1 06D       0.039700
     22 H6         -11.3220     4.8060     7.1680 hc         1 06D       0.039700
     23 H7         -11.3460     4.7600     8.9310 hc         1 06D       0.039700
     24 H8          -3.8550     6.8850     7.3630 ha         1 06D       0.120000
     25 H9          -0.3730     6.4840     8.2450 h1         1 06D       0.039367
     26 H10         -1.5500     6.8790     6.9810 h1         1 06D       0.039367
     27 H11         -1.9510     7.1580     8.6890 h1         1 06D       0.039367
     28 H12         -2.8400     2.8060     8.2480 ha         1 06D       0.120000
     29 H13         -5.1550     2.1460     7.7790 ha         1 06D       0.111500
     30 H14         -8.1520     2.4450     5.4290 hc         1 06D       0.056700
     31 H15         -6.4250     2.6810     5.1650 hc         1 06D       0.056700
     32 H16         -6.7820     5.0360     4.5690 hc         1 06D       0.055700
     33 H17         -8.1310     4.2390     3.7670 hc         1 06D       0.055700
     34 H18         -8.5650     6.2470     5.5680 h1         1 06D       0.042200
     35 H19         -9.6730     4.8740     5.4780 h1         1 06D       0.042200
     36 C02         -8.7370     5.1410     8.1770 c          1 06D       0.604100
@<TRIPOS>BOND
     1     1     2 1   
     2     1    11 1   
     3     1    14 1   
     4     1    17 1   
     5     2     3 ar  
     6     2    10 ar  
     7     3     6 ar  
     8     3    18 1   
     9     4     5 1   
    10     4    19 1   
    11     4    20 1   
    12     4    36 1   
    13     5    21 1   
    14     5    22 1   
    15     5    23 1   
    16     6     7 ar  
    17     6    24 1   
    18     7     9 ar  
    19     7    16 1   
    20     8    16 1   
    21     8    25 1   
    22     8    26 1   
    23     8    27 1   
    24     9    10 ar  
    25     9    28 1   
    26    10    29 1   
    27    11    12 1   
    28    11    30 1   
    29    11    31 1   
    30    12    13 1   
    31    12    32 1   
    32    12    33 1   
    33    13    14 1   
    34    13    34 1   
    35    13    35 1   
    36    14    36 1   
    37    15    36 2   
@<TRIPOS>SUBSTRUCTURE
     1 06D         1 TEMP              0 ****  ****    0 ROOT
