@<TRIPOS>MOLECULE
06E
   41    43     1     0     0
SMALL
No Charge or Current Charge


@<TRIPOS>ATOM
      1 C27         61.6870    54.2340     7.5830 c          1 06E       0.714000
      2 O1          61.9380    53.7350     6.4960 o          1 06E      -0.741500
      3 C28         62.8640    54.5380     8.5310 c3         1 06E      -0.209400
      4 C29         63.2490    53.3020     9.3860 c3         1 06E      -0.045400
      5 C30         62.1720    52.8660    10.4110 c3         1 06E      -0.070400
      6 C31         62.5600    51.6310    11.2590 c3         1 06E      -0.073400
      7 C32         63.7530    51.8640    12.2120 c3         1 06E       0.151800
      8 N17         63.9890    50.6620    13.0320 n7         1 06E      -0.846400
      9 C33         65.1510    50.7520    13.9760 c3         1 06E       0.113500
     10 C34         65.4210    49.4820    14.7810 cc         1 06E       0.507900
     11 N19         66.4800    48.7040    14.5260 nd         1 06E      -0.564300
     12 C36         66.6040    47.5660    15.3410 cd         1 06E       0.114800
     13 C42         67.6700    46.5750    15.2510 ca         1 06E       0.388800
     14 N20         68.6960    46.6060    14.3700 nb         1 06E      -0.591000
     15 C41         69.5870    45.5860    14.4520 ca         1 06E       0.357900
     16 C40         69.4770    44.5350    15.3940 ca         1 06E      -0.068900
     17 Br          70.7800    43.1330    15.4390 br         1 06E      -0.082100
     18 C39         68.3990    44.5280    16.2990 ca         1 06E      -0.026000
     19 C38         67.4870    45.5890    16.2030 ca         1 06E      -0.216000
     20 S           66.0360    45.8210    17.2260 ss         1 06E       0.168400
     21 C37         65.6700    47.3160    16.3250 cc         1 06E      -0.223600
     22 C35         64.5270    48.1710    16.5950 c          1 06E       0.600200
     23 O           63.6850    47.9810    17.4580 o          1 06E      -0.540000
     24 N18         64.4940    49.2340    15.7650 ns         1 06E      -0.411400
     25 H2          63.7650    54.7600     7.9440 hc         1 06E       0.016200
     26 H3          62.6000    55.3330     9.2390 hc         1 06E       0.016200
     27 H4          63.4780    52.4600     8.7200 hc         1 06E       0.016700
     28 H5          64.1760    53.5390     9.9200 hc         1 06E       0.016700
     29 H6          61.9440    53.7050    11.0800 hc         1 06E       0.046700
     30 H7          61.2440    52.6300     9.8780 hc         1 06E       0.046700
     31 H8          61.6870    51.3340    11.8520 hc         1 06E       0.039200
     32 H9          62.7870    50.7910    10.5910 hc         1 06E       0.039200
     33 H10         64.6500    52.0990    11.6230 h1         1 06E       0.034200
     34 H11         63.5360    52.7290    12.8540 h1         1 06E       0.034200
     35 H12         63.1310    50.4640    13.5630 hn         1 06E       0.399000
     36 H14         66.0650    50.9910    13.4150 h1         1 06E       0.059700
     37 H15         65.0000    51.5770    14.6860 h1         1 06E       0.059700
     38 H16         70.4140    45.6080    13.7430 h4         1 06E       0.040100
     39 H17         68.2810    43.7370    17.0370 ha         1 06E       0.139000
     40 H18         63.7290    49.8780    15.8960 hn         1 06E       0.331500
     41 OXT         60.5550    54.4890     7.9620 o          1 06E      -0.741500
@<TRIPOS>BOND
     1     1     2 1   
     2     1     3 1   
     3     1    41 1   
     4     3     4 1   
     5     3    25 1   
     6     3    26 1   
     7     4     5 1   
     8     4    27 1   
     9     4    28 1   
    10     5     6 1   
    11     5    29 1   
    12     5    30 1   
    13     6     7 1   
    14     6    31 1   
    15     6    32 1   
    16     7     8 1   
    17     7    33 1   
    18     7    34 1   
    19     8     9 1   
    20     8    35 1   
    21     9    10 1   
    22     9    36 1   
    23     9    37 1   
    24    10    11 2   
    25    10    24 1   
    26    11    12 1   
    27    12    13 1   
    28    12    21 2   
    29    13    14 ar  
    30    13    19 ar  
    31    14    15 ar  
    32    15    16 ar  
    33    15    38 1   
    34    16    17 1   
    35    16    18 ar  
    36    18    19 ar  
    37    18    39 1   
    38    19    20 1   
    39    20    21 1   
    40    21    22 1   
    41    22    23 2   
    42    22    24 1   
    43    24    40 1   
@<TRIPOS>SUBSTRUCTURE
     1 06E         1 TEMP              0 ****  ****    0 ROOT
