@<TRIPOS>MOLECULE
06E
   41    43     1     0     0
SMALL
abcg2


@<TRIPOS>ATOM
      1 C27         61.9400    54.0020     7.5360 c          1 06E       0.714000
      2 O1          62.1130    52.8520     7.0830 o          1 06E      -0.741500
      3 C28         62.8300    54.4390     8.7200 c3         1 06E      -0.209400
      4 C29         63.3370    53.3190     9.6170 c3         1 06E      -0.045400
      5 C30         62.2280    52.6550    10.4260 c3         1 06E      -0.070400
      6 C31         62.6730    51.4370    11.2320 c3         1 06E      -0.073400
      7 C32         63.7620    51.7410    12.2490 c3         1 06E       0.151800
      8 N17         64.0420    50.5760    13.0740 n7         1 06E      -0.846400
      9 C33         65.0970    50.8340    14.0370 c3         1 06E       0.113500
     10 C34         65.3760    49.5990    14.8450 cc         1 06E       0.507900
     11 N19         66.3380    48.8010    14.5160 nd         1 06E      -0.564300
     12 C36         66.4930    47.7010    15.2970 cd         1 06E       0.114800
     13 C42         67.5100    46.6930    15.1240 ca         1 06E       0.388800
     14 N20         68.4400    46.6850    14.1730 nb         1 06E      -0.591000
     15 C41         69.3040    45.6940    14.1680 ca         1 06E       0.357900
     16 C40         69.2770    44.6610    15.1190 ca         1 06E      -0.068900
     17 BR          70.5660    43.2990    15.0290 br         1 06E      -0.082100
     18 C39         68.3200    44.6430    16.1100 ca         1 06E      -0.026000
     19 C38         67.4120    45.6960    16.1060 ca         1 06E      -0.216000
     20 S           66.1100    45.9620    17.2180 ss         1 06E       0.168400
     21 C37         65.6970    47.4130    16.3760 cc         1 06E      -0.223600
     22 C35         64.6250    48.2840    16.7600 c          1 06E       0.600200
     23 O           63.8700    48.1320    17.7000 o          1 06E      -0.540000
     24 N18         64.5520    49.3720    15.9040 ns         1 06E      -0.411400
     25 H2          63.6910    54.9720     8.2970 hc         1 06E       0.016200
     26 H3          62.2980    55.1840     9.3200 hc         1 06E       0.016200
     27 H4          63.8460    52.5660     9.0100 hc         1 06E       0.016700
     28 H5          64.0930    53.7250    10.2960 hc         1 06E       0.016700
     29 H6          61.7810    53.3940    11.1010 hc         1 06E       0.046700
     30 H7          61.4300    52.3430     9.7480 hc         1 06E       0.046700
     31 H8          61.8050    51.0250    11.7570 hc         1 06E       0.039200
     32 H9          63.0250    50.6540    10.5540 hc         1 06E       0.039200
     33 H10         64.6870    52.0170    11.7360 h1         1 06E       0.034200
     34 H11         63.4690    52.6170    12.8500 h1         1 06E       0.034200
     35 H12         63.1930    50.3220    13.5660 hn         1 06E       0.399000
     36 H14         66.0110    51.0890    13.4990 h1         1 06E       0.059700
     37 H15         64.8780    51.6700    14.7180 h1         1 06E       0.059700
     38 H16         70.0570    45.7000    13.3880 h4         1 06E       0.040100
     39 H17         68.2740    43.8570    16.8520 ha         1 06E       0.139000
     40 H18         63.8280    50.0540    16.1050 hn         1 06E       0.331500
     41 OXT         61.1410    54.8580     7.0990 o          1 06E      -0.741500
@<TRIPOS>BOND
     1     1     2 1   
     2     1     3 1   
     3     1    41 1   
     4     3     4 1   
     5     3    25 1   
     6     3    26 1   
     7     4     5 1   
     8     4    27 1   
     9     4    28 1   
    10     5     6 1   
    11     5    29 1   
    12     5    30 1   
    13     6     7 1   
    14     6    31 1   
    15     6    32 1   
    16     7     8 1   
    17     7    33 1   
    18     7    34 1   
    19     8     9 1   
    20     8    35 1   
    21     9    10 1   
    22     9    36 1   
    23     9    37 1   
    24    10    11 2   
    25    10    24 1   
    26    11    12 1   
    27    12    13 1   
    28    12    21 2   
    29    13    14 ar  
    30    13    19 ar  
    31    14    15 ar  
    32    15    16 ar  
    33    15    38 1   
    34    16    17 1   
    35    16    18 ar  
    36    18    19 ar  
    37    18    39 1   
    38    19    20 1   
    39    20    21 1   
    40    21    22 1   
    41    22    23 2   
    42    22    24 1   
    43    24    40 1   
@<TRIPOS>SUBSTRUCTURE
     1 06E         1 TEMP              0 ****  ****    0 ROOT
