@<TRIPOS>MOLECULE
06F
   74    78     1     0     0
SMALL
No Charge or Current Charge


@<TRIPOS>ATOM
      1 CAA          7.8090     4.4250     0.2410 c3         1 06F      -0.049800
      2 CAB          4.7790    -4.9620    -1.6390 c3         1 06F      -0.080100
      3 CAC          4.9140    -5.1420     0.8840 c3         1 06F      -0.080100
      4 CAD          7.0120    -4.8390    -0.4790 c3         1 06F      -0.080100
      5 OAF          1.3140    -1.1330     0.0920 o          1 06F      -0.591100
      6 CAG         -1.6160     3.4130     0.6890 ca         1 06F      -0.048000
      7 CAH         -0.2990     2.9400     0.5770 ca         1 06F      -0.206000
      8 CAI         -2.6890     2.5160     0.5920 ca         1 06F      -0.188000
      9 CAJ          7.2290     2.1760     1.2700 ca         1 06F      -0.104500
     10 CAK          6.7070     2.5520    -1.0750 ca         1 06F      -0.104500
     11 CAL         -5.2960     1.3610    -0.9220 ca         1 06F      -0.181000
     12 CAM          6.6970     0.8780     1.1800 ca         1 06F      -0.106000
     13 CAN          6.1750     1.2540    -1.1660 ca         1 06F      -0.106000
     14 CAO         -6.6500     1.4320    -1.2810 ca         1 06F      -0.033000
     15 CAP         -1.1320     0.6810     0.2800 ca         1 06F      -0.198000
     16 CAQ         -5.7440    -0.6280     0.3860 ca         1 06F      -0.192000
     17 CAR          4.0470    -2.3340    -0.1440 cc         1 06F      -0.225000
     18 CAS        -10.3890    -0.5390     0.6500 c3         1 06F      -0.062400
     19 CAT         -9.2210    -1.2170     1.4050 c3         1 06F      -0.070400
     20 CAU        -10.0090     0.7950    -0.0270 c3         1 06F      -0.173400
     21 CAV         -8.0480    -1.6860     0.5120 c3         1 06F      -0.038100
     22 NAW          6.3200    -2.0580    -0.2370 nd         1 06F      -0.507800
     23 NAX          1.3190     1.1720     0.2810 ns         1 06F      -0.160000
     24 NAZ         -3.4990     0.2340     0.2870 nu         1 06F      -0.991000
     25 CBA         -9.0070     0.5900    -1.1640 c          1 06F       0.592700
     26 CBB          1.9180    -0.0720     0.1450 c          1 06F       0.676100
     27 CBC          7.2370     3.0190     0.1420 ca         1 06F      -0.071300
     28 CBD         -0.0410     1.5720     0.3770 ca         1 06F       0.030000
     29 CBE         -2.4510     1.1500     0.3730 ca         1 06F       0.347000
     30 CBF         -4.8420     0.3420    -0.0720 ca         1 06F       0.348000
     31 CBG          6.1660     0.4120    -0.0370 ca         1 06F       0.005800
     32 CBH         -7.1100    -0.5710     0.0410 ca         1 06F       0.005700
     33 CBI          4.2380    -0.9900    -0.0540 cd         1 06F       0.023600
     34 CBJ          5.3260    -2.9350    -0.2530 cc         1 06F       0.280300
     35 CBK         -7.5620     0.4780    -0.7910 ca         1 06F      -0.206600
     36 NBL          5.6270    -0.8710    -0.1220 na         1 06F       0.180000
     37 HAA          8.2310     4.7540    -0.7170 hc         1 06F       0.045700
     38 HAAA         7.0330     5.1430     0.5290 hc         1 06F       0.045700
     39 HAAB         8.6110     4.4800     0.9870 hc         1 06F       0.045700
     40 HAB          3.7010    -4.7660    -1.5860 hc         1 06F       0.036700
     41 HABA         5.1670    -4.4680    -2.5380 hc         1 06F       0.036700
     42 HABB         4.9150    -6.0440    -1.7610 hc         1 06F       0.036700
     43 HAC          5.0540    -6.2290     0.8360 hc         1 06F       0.036700
     44 HACA         5.4000    -4.7770     1.7970 hc         1 06F       0.036700
     45 HACB         3.8380    -4.9480     0.9740 hc         1 06F       0.036700
     46 HAD          7.4750    -4.3830    -1.3630 hc         1 06F       0.036700
     47 HADA         7.5700    -4.5100     0.4060 hc         1 06F       0.036700
     48 HADB         7.1300    -5.9260    -0.5630 hc         1 06F       0.036700
     49 HAG         -1.8030     4.4720     0.8570 ha         1 06F       0.114000
     50 HAH          0.5270     3.6450     0.6540 ha         1 06F       0.111000
     51 HAI         -3.7040     2.8850     0.7050 ha         1 06F       0.128000
     52 HAJ          7.6330     2.5260     2.2170 ha         1 06F       0.118000
     53 HAK          6.7060     3.1960    -1.9530 ha         1 06F       0.118000
     54 HAL         -4.6000     2.0920    -1.3230 ha         1 06F       0.128000
     55 HAM          6.6930     0.2330     2.0570 ha         1 06F       0.133000
     56 HAN          5.7680     0.9020    -2.1110 ha         1 06F       0.133000
     57 HAO         -6.9930     2.2310    -1.9360 ha         1 06F       0.125000
     58 HAP         -0.9750    -0.3780     0.1180 ha         1 06F       0.151000
     59 HAQ         -5.3820    -1.4330     1.0190 ha         1 06F       0.111000
     60 HAR          3.1090    -2.8740    -0.1330 ha         1 06F       0.166000
     61 HAS        -10.7950    -1.2300    -0.1000 hc         1 06F       0.045200
     62 HASA       -11.1980    -0.3470     1.3650 hc         1 06F       0.045200
     63 HAT         -8.8410    -0.5450     2.1850 hc         1 06F       0.044700
     64 HATA        -9.6250    -2.0940     1.9250 hc         1 06F       0.044700
     65 HAU        -10.9140     1.2770    -0.4150 hc         1 06F       0.063700
     66 HAUA        -9.5390     1.4150     0.7460 hc         1 06F       0.063700
     67 HAV         -7.4780    -2.4310     1.0790 hc         1 06F       0.050700
     68 HAVA        -8.4490    -2.2260    -0.3550 hc         1 06F       0.050700
     69 HNAX         1.9680     1.9460     0.3180 hn         1 06F       0.149000
     70 HNAY         3.6380     0.9750     0.1370 hn         1 06F       0.326500
     71 HNAZ        -3.2280    -0.7140     0.5450 hn         1 06F       0.499000
     72 CBM          5.5090    -4.4470    -0.3700 c3         1 06F      -0.073300
     73 NAY          3.2950     0.0240     0.0780 ns         1 06F      -0.421100
     74 OAE         -9.3700     0.4910    -2.3290 o          1 06F      -0.525100
@<TRIPOS>BOND
     1     1    27 1   
     2     1    37 1   
     3     1    38 1   
     4     1    39 1   
     5     2    40 1   
     6     2    41 1   
     7     2    42 1   
     8     2    72 1   
     9     3    43 1   
    10     3    44 1   
    11     3    45 1   
    12     3    72 1   
    13     4    46 1   
    14     4    47 1   
    15     4    48 1   
    16     4    72 1   
    17     5    26 2   
    18     6     7 ar  
    19     6     8 ar  
    20     6    49 1   
    21     7    28 ar  
    22     7    50 1   
    23     8    29 ar  
    24     8    51 1   
    25     9    12 ar  
    26     9    27 ar  
    27     9    52 1   
    28    10    13 ar  
    29    10    27 ar  
    30    10    53 1   
    31    11    14 ar  
    32    11    30 ar  
    33    11    54 1   
    34    12    31 ar  
    35    12    55 1   
    36    13    31 ar  
    37    13    56 1   
    38    14    35 ar  
    39    14    57 1   
    40    15    28 ar  
    41    15    29 ar  
    42    15    58 1   
    43    16    30 ar  
    44    16    32 ar  
    45    16    59 1   
    46    17    33 2   
    47    17    34 1   
    48    17    60 1   
    49    18    19 1   
    50    18    20 1   
    51    18    61 1   
    52    18    62 1   
    53    19    21 1   
    54    19    63 1   
    55    19    64 1   
    56    20    25 1   
    57    20    65 1   
    58    20    66 1   
    59    21    32 1   
    60    21    67 1   
    61    21    68 1   
    62    22    34 2   
    63    22    36 1   
    64    23    26 1   
    65    23    28 1   
    66    23    69 1   
    67    24    29 1   
    68    24    30 1   
    69    24    71 1   
    70    25    35 1   
    71    25    74 2   
    72    26    73 1   
    73    31    36 1   
    74    32    35 ar  
    75    33    36 1   
    76    33    73 1   
    77    34    72 1   
    78    70    73 1   
@<TRIPOS>SUBSTRUCTURE
     1 06F         1 TEMP              0 ****  ****    0 ROOT
