@<TRIPOS>MOLECULE
06F
   74    78     1     0     0
SMALL
bcc


@<TRIPOS>ATOM
      1 CAA          8.1780     4.1560    -0.5190 c3         1 06F      -0.049800
      2 CAB          4.6020    -4.9330    -1.3540 c3         1 06F      -0.080100
      3 CAC          5.0300    -5.0410     1.1090 c3         1 06F      -0.080100
      4 CAD          6.8970    -4.5200    -0.4640 c3         1 06F      -0.080100
      5 OAF          1.1980    -0.9180     0.0890 o          1 06F      -0.591100
      6 CAG         -1.7380     3.3250     1.2530 ca         1 06F      -0.066000
      7 CAH         -0.4190     2.9180     1.1790 ca         1 06F      -0.224000
      8 CAI         -2.7830     2.4500     0.9990 ca         1 06F      -0.206000
      9 CAJ          7.8920     1.8250     0.3970 ca         1 06F      -0.122500
     10 CAK          6.2120     2.6860    -1.0660 ca         1 06F      -0.122500
     11 CAL         -5.2090     1.5020    -0.6980 ca         1 06F      -0.199000
     12 CAM          7.1960     0.6310     0.5100 ca         1 06F      -0.124000
     13 CAN          5.5140     1.4910    -0.9800 ca         1 06F      -0.124000
     14 CAO         -6.5310     1.5950    -1.0870 ca         1 06F      -0.051000
     15 CAP         -1.1600     0.7080     0.5680 ca         1 06F      -0.216000
     16 CAQ         -5.6960    -0.6600     0.2230 ca         1 06F      -0.210000
     17 CAR          3.7940    -2.3190     0.2290 cc         1 06F      -0.308300
     18 CAS        -10.2800    -0.7970     0.1780 c3         1 06F      -0.062400
     19 CAT         -9.1670    -1.5250     0.9140 c3         1 06F      -0.070400
     20 CAU         -9.9690     0.6550    -0.1860 c3         1 06F      -0.173400
     21 CAV         -7.9150    -1.7650     0.0760 c3         1 06F      -0.038100
     22 NAW          5.9590    -1.9220    -0.2420 nd         1 06F      -0.507800
     23 NAX          1.2310     1.2550     0.8090 ns         1 06F      -0.486100
     24 NAZ         -3.4740     0.1820     0.4060 nu         1 06F      -0.659000
     25 CBA         -8.8710     0.8660    -1.2000 c          1 06F       0.592700
     26 CBB          1.8060     0.0720     0.4440 c          1 06F       0.810100
     27 CBC          7.4130     2.8730    -0.3860 ca         1 06F      -0.071300
     28 CBD         -0.1220     1.5920     0.8450 ca         1 06F       0.122600
     29 CBE         -2.4910     1.1340     0.6430 ca         1 06F       0.208600
     30 CBF         -4.7730     0.3670    -0.0090 ca         1 06F       0.209600
     31 CBG          6.0030     0.4640    -0.1800 ca         1 06F       0.005800
     32 CBH         -7.0270    -0.5680    -0.1520 ca         1 06F       0.005700
     33 CBI          3.9960    -0.9590     0.2270 cd         1 06F       0.074300
     34 CBJ          5.0610    -2.8660    -0.0720 cc         1 06F       0.345600
     35 CBK         -7.4640     0.6000    -0.7950 ca         1 06F      -0.206600
     36 NBL          5.3040    -0.7580    -0.0780 na         1 06F       0.129300
     37 HAA          8.6910     4.2040    -1.4820 hc         1 06F       0.045700
     38 HAAA         7.5200     5.0230    -0.4630 hc         1 06F       0.045700
     39 HAAB         8.9340     4.2550     0.2600 hc         1 06F       0.045700
     40 HAB          3.5270    -4.8130    -1.2080 hc         1 06F       0.036700
     41 HABA         4.8660    -4.4630    -2.3030 hc         1 06F       0.036700
     42 HABB         4.8080    -6.0020    -1.4400 hc         1 06F       0.036700
     43 HAC          5.2740    -6.1030     1.0420 hc         1 06F       0.036700
     44 HACA         5.5710    -4.6230     1.9590 hc         1 06F       0.036700
     45 HACB         3.9620    -4.9600     1.3190 hc         1 06F       0.036700
     46 HAD          7.2070    -4.0340    -1.3890 hc         1 06F       0.036700
     47 HADA         7.5080    -4.1170     0.3460 hc         1 06F       0.036700
     48 HADB         7.1200    -5.5850    -0.5540 hc         1 06F       0.036700
     49 HAG         -1.9610     4.3480     1.5290 ha         1 06F       0.132000
     50 HAH          0.3800     3.6200     1.3860 ha         1 06F       0.129000
     51 HAI         -3.8030     2.7890     1.1050 ha         1 06F       0.146000
     52 HAJ          8.8220     1.9430     0.9390 ha         1 06F       0.136000
     53 HAK          5.8170     3.4790    -1.6900 ha         1 06F       0.136000
     54 HAL         -4.5240     2.3000    -0.9510 ha         1 06F       0.146000
     55 HAM          7.5780    -0.1670     1.1320 ha         1 06F       0.151000
     56 HAN          4.6030     1.3600    -1.5500 ha         1 06F       0.151000
     57 HAO         -6.8500     2.4840    -1.6170 ha         1 06F       0.143000
     58 HAP         -0.9570    -0.3150     0.2930 ha         1 06F       0.169000
     59 HAQ         -5.3510    -1.5650     0.7130 ha         1 06F       0.129000
     60 HAR          2.8780    -2.8430     0.4370 ha         1 06F       0.184000
     61 HAS        -10.5470    -1.3530    -0.7260 hc         1 06F       0.045200
     62 HASA       -11.1740    -0.7870     0.8050 hc         1 06F       0.045200
     63 HAT         -8.9030    -0.9840     1.8280 hc         1 06F       0.044700
     64 HATA        -9.5490    -2.4970     1.2320 hc         1 06F       0.044700
     65 HAU        -10.8720     1.1290    -0.5730 hc         1 06F       0.063700
     66 HAUA        -9.6810     1.1910     0.7250 hc         1 06F       0.063700
     67 HAV         -7.3170    -2.5410     0.5570 hc         1 06F       0.050700
     68 HAVA        -8.2120    -2.1790    -0.8940 hc         1 06F       0.050700
     69 HNAX         1.8500     2.0110     1.0620 hn         1 06F       0.315500
     70 HNAY         3.6290     0.9570     0.8390 hn         1 06F       0.326500
     71 HNAZ        -3.2070    -0.7720     0.5910 hn         1 06F       0.443800
     72 CBM          5.4050    -4.3270    -0.1960 c3         1 06F      -0.073300
     73 NAY          3.1780     0.1140     0.5150 ns         1 06F      -0.488100
     74 OAE         -9.1100     1.3560    -2.2860 o          1 06F      -0.525100
@<TRIPOS>BOND
     1     1    27 1   
     2     1    37 1   
     3     1    38 1   
     4     1    39 1   
     5     2    40 1   
     6     2    41 1   
     7     2    42 1   
     8     2    72 1   
     9     3    43 1   
    10     3    44 1   
    11     3    45 1   
    12     3    72 1   
    13     4    46 1   
    14     4    47 1   
    15     4    48 1   
    16     4    72 1   
    17     5    26 2   
    18     6     7 ar  
    19     6     8 ar  
    20     6    49 1   
    21     7    28 ar  
    22     7    50 1   
    23     8    29 ar  
    24     8    51 1   
    25     9    12 ar  
    26     9    27 ar  
    27     9    52 1   
    28    10    13 ar  
    29    10    27 ar  
    30    10    53 1   
    31    11    14 ar  
    32    11    30 ar  
    33    11    54 1   
    34    12    31 ar  
    35    12    55 1   
    36    13    31 ar  
    37    13    56 1   
    38    14    35 ar  
    39    14    57 1   
    40    15    28 ar  
    41    15    29 ar  
    42    15    58 1   
    43    16    30 ar  
    44    16    32 ar  
    45    16    59 1   
    46    17    33 2   
    47    17    34 1   
    48    17    60 1   
    49    18    19 1   
    50    18    20 1   
    51    18    61 1   
    52    18    62 1   
    53    19    21 1   
    54    19    63 1   
    55    19    64 1   
    56    20    25 1   
    57    20    65 1   
    58    20    66 1   
    59    21    32 1   
    60    21    67 1   
    61    21    68 1   
    62    22    34 2   
    63    22    36 1   
    64    23    26 1   
    65    23    28 1   
    66    23    69 1   
    67    24    29 1   
    68    24    30 1   
    69    24    71 1   
    70    25    35 1   
    71    25    74 2   
    72    26    73 1   
    73    31    36 1   
    74    32    35 ar  
    75    33    36 1   
    76    33    73 1   
    77    34    72 1   
    78    70    73 1   
@<TRIPOS>SUBSTRUCTURE
     1 06F         1 TEMP              0 ****  ****    0 ROOT
