@<TRIPOS>MOLECULE
06I
   54    58     1     0     0
SMALL
bcc


@<TRIPOS>ATOM
      1 C1         -14.0320   -26.6430     1.1650 c          1 06I       0.706700
      2 C2         -14.7890   -27.4700     0.2480 cc         1 06I      -0.167400
      3 N3         -12.1860   -32.0440    -1.9330 ns         1 06I      -0.468100
      4 N4         -12.8080   -27.1880     1.5600 n          1 06I      -0.255200
      5 C5         -18.4330   -27.4870    -0.6020 ca         1 06I       0.060400
      6 C6         -18.6570   -26.1980    -1.0370 ca         1 06I      -0.156000
      7 C7         -17.5870   -25.2990    -1.0470 ca         1 06I       0.154100
      8 C8         -16.8920   -23.0400    -1.3500 c3         1 06I       0.114100
      9 C9         -17.5490   -21.7370    -1.6590 cc         1 06I       0.321600
     10 C10        -18.4080   -21.0910    -0.8180 cd         1 06I      -0.104700
     11 C11        -18.8810   -21.4940     0.5350 c3         1 06I      -0.022800
     12 C12        -17.9890   -20.0250    -2.9570 cd         1 06I       0.410300
     13 C14        -14.2960   -28.6760    -0.1520 cd         1 06I      -0.021000
     14 C15        -13.0400   -29.1710     0.2800 cd         1 06I      -0.141000
     15 C17        -11.9710   -31.4210     0.7610 c          1 06I       0.735700
     16 C18        -12.6020   -30.8320    -1.4850 cc         1 06I       0.057600
     17 C19        -11.6480   -33.0050    -1.1180 c          1 06I       0.825500
     18 C20        -12.3310   -28.3870     1.1360 cc         1 06I       0.068600
     19 C22        -11.3790   -25.2880     2.1530 ca         1 06I      -0.064000
     20 C23        -10.6400   -24.6390     3.1260 ca         1 06I      -0.242300
     21 C24        -10.5940   -25.1840     4.4020 ca         1 06I       0.412200
     22 C13        -16.3260   -25.7070    -0.6310 ca         1 06I      -0.189000
     23 C16        -12.5290   -30.4660    -0.1880 cd         1 06I      -0.212200
     24 C21        -12.0390   -26.4520     2.5090 ca         1 06I      -0.107700
     25 C25        -11.9370   -26.9200     3.8100 ca         1 06I       0.419200
     26 C3         -16.1250   -27.0150    -0.1850 ca         1 06I       0.014200
     27 C4         -17.1880   -27.9130    -0.1660 ca         1 06I      -0.158000
     28 N1         -17.3220   -21.1260    -2.8610 nc         1 06I      -0.619000
     29 N2         -11.5730   -32.6220     0.1980 ns         1 06I      -0.603500
     30 N5         -11.2240   -26.3010     4.7410 nb         1 06I      -0.655000
     31 O1         -14.3890   -25.5640     1.6140 o          1 06I      -0.608500
     32 O3         -11.8480   -31.2350     1.9560 o          1 06I      -0.600500
     33 O4         -11.2730   -34.0850    -1.5180 o          1 06I      -0.617500
     34 S1         -18.9530   -19.6520    -1.5850 ss         1 06I      -0.179300
     35 CL1        -19.7600   -28.6030    -0.5750 cl         1 06I      -0.110400
     36 H2         -19.6380   -25.8760    -1.3590 ha         1 06I       0.162000
     37 H4         -16.0660   -23.2120    -2.0460 h1         1 06I       0.057200
     38 H3         -16.4830   -23.0340    -0.3350 h1         1 06I       0.057200
     39 H7         -18.8740   -20.6550     1.2290 hc         1 06I       0.054700
     40 H5         -19.8990   -21.8840     0.4980 hc         1 06I       0.054700
     41 H6         -18.2440   -22.2740     0.9500 hc         1 06I       0.054700
     42 H8         -17.9620   -19.3710    -3.8180 h5         1 06I       0.054100
     43 H10        -14.8860   -29.2860    -0.8280 ha         1 06I       0.138000
     44 H12        -12.9950   -30.1750    -2.2480 h4         1 06I       0.161000
     45 H13        -11.3550   -28.6580     1.5110 h4         1 06I       0.171000
     46 H14        -11.4360   -24.9050     1.1420 ha         1 06I       0.150000
     47 H15        -10.1030   -23.7280     2.9020 ha         1 06I       0.148000
     48 H16        -10.0210   -24.6950     5.1820 h4         1 06I       0.025100
     49 H9         -15.4870   -25.0280    -0.6590 ha         1 06I       0.150000
     50 H17        -12.4520   -27.8300     4.1010 h4         1 06I       0.036100
     51 H1         -17.0530   -28.9220     0.2000 ha         1 06I       0.148000
     52 H11        -11.1830   -33.3090     0.8330 hn         1 06I       0.347500
     53 H19        -12.2610   -32.2610    -2.9160 hn         1 06I       0.352500
     54 O2         -17.8800   -24.0580    -1.4740 os         1 06I      -0.317900
@<TRIPOS>BOND
     1     1     2 1   
     2     1     4 1   
     3     1    31 2   
     4     2    13 2   
     5     2    26 1   
     6     3    16 1   
     7     3    17 1   
     8     3    53 1   
     9     4    18 1   
    10     4    24 1   
    11     5     6 ar  
    12     5    27 ar  
    13     5    35 1   
    14     6     7 ar  
    15     6    36 1   
    16     7    22 ar  
    17     7    54 1   
    18     8     9 1   
    19     8    37 1   
    20     8    38 1   
    21     8    54 1   
    22     9    10 2   
    23     9    28 1   
    24    10    11 1   
    25    10    34 1   
    26    11    39 1   
    27    11    40 1   
    28    11    41 1   
    29    12    28 2   
    30    12    34 1   
    31    12    42 1   
    32    13    14 1   
    33    13    43 1   
    34    14    18 2   
    35    14    23 1   
    36    15    23 1   
    37    15    29 1   
    38    15    32 2   
    39    16    23 2   
    40    16    44 1   
    41    17    29 1   
    42    17    33 2   
    43    18    45 1   
    44    19    20 ar  
    45    19    24 ar  
    46    19    46 1   
    47    20    21 ar  
    48    20    47 1   
    49    21    30 ar  
    50    21    48 1   
    51    22    26 ar  
    52    22    49 1   
    53    24    25 ar  
    54    25    30 ar  
    55    25    50 1   
    56    26    27 ar  
    57    27    51 1   
    58    29    52 1   
@<TRIPOS>SUBSTRUCTURE
     1 06I         1 TEMP              0 ****  ****    0 ROOT
