@<TRIPOS>MOLECULE
06I
   54    58     1     0     0
SMALL
No Charge or Current Charge


@<TRIPOS>ATOM
      1 C1         -14.1510   -26.7250     1.6000 c          1 06I       0.564200
      2 C2         -14.8990   -27.4550     0.5550 cc         1 06I      -0.167400
      3 N3         -12.7380   -32.0530    -1.9430 ns         1 06I      -0.514600
      4 N4         -12.8680   -27.2450     1.9030 n          1 06I      -0.188200
      5 C5         -18.6070   -27.4740    -0.1730 ca         1 06I       0.152000
      6 C6         -18.7870   -26.1960    -0.7190 ca         1 06I      -0.138000
      7 C7         -17.6960   -25.3250    -0.8480 ca         1 06I       0.154100
      8 C8         -16.8820   -23.0970    -1.5450 c3         1 06I       0.137300
      9 C9         -17.4730   -21.8310    -2.1250 cc         1 06I       0.256300
     10 C10        -18.3070   -20.9600    -1.4590 cd         1 06I      -0.184300
     11 C11        -18.8160   -21.0600    -0.0430 c3         1 06I      -0.022800
     12 C12        -17.7800   -20.3460    -3.7500 cd         1 06I       0.410300
     13 C14        -14.4240   -28.5930    -0.0660 cd         1 06I      -0.071000
     14 C15        -13.1200   -29.1090     0.3010 cd         1 06I      -0.141000
     15 C17        -11.2150   -30.9740     0.0860 c          1 06I       0.593200
     16 C18        -13.2450   -30.9150    -1.3290 cc         1 06I       0.007600
     17 C19        -11.5690   -32.6700    -1.6390 c          1 06I       0.616000
     18 C20        -12.4000   -28.4010     1.2570 cc         1 06I       0.018600
     19 C22        -11.9030   -25.2910     3.1160 ca         1 06I      -0.046000
     20 C23        -11.0460   -24.7940     4.1120 ca         1 06I      -0.159000
     21 C24        -10.3570   -25.6940     4.9380 ca         1 06I       0.346900
     22 C13        -16.4140   -25.7440    -0.4270 ca         1 06I      -0.171000
     23 C16        -12.5230   -30.3170    -0.3000 cd         1 06I      -0.212200
     24 C21        -12.0750   -26.6880     2.9910 ca         1 06I      -0.042400
     25 C25        -11.2910   -27.5100     3.8420 ca         1 06I       0.353900
     26 C3         -16.2290   -27.0270     0.1210 ca         1 06I       0.014200
     27 C4         -17.3340   -27.8900     0.2470 ca         1 06I      -0.140000
     28 N1         -17.1720   -21.4820    -3.4220 nc         1 06I      -0.619000
     29 N2         -10.8850   -32.0800    -0.6370 ns         1 06I      -0.469500
     30 N5         -10.4650   -27.0350     4.8060 nb         1 06I      -0.655000
     31 O1         -14.6270   -25.7580     2.1830 o          1 06I      -0.533000
     32 O3         -10.4650   -30.6080     0.9740 o          1 06I      -0.525000
     33 O4         -11.1780   -33.6640    -2.2170 o          1 06I      -0.542000
     34 S1         -18.7660   -19.6160    -2.4880 ss         1 06I      -0.034400
     35 Cl1        -19.9810   -28.5590    -0.0100 cl         1 06I      -0.202000
     36 H2         -19.7740   -25.8770    -1.0410 ha         1 06I       0.144000
     37 H4         -16.0970   -23.4740    -2.2130 h1         1 06I       0.057200
     38 H3         -16.4250   -22.8600    -0.5760 h1         1 06I       0.057200
     39 H7         -19.4600   -20.2110     0.2140 hc         1 06I       0.054700
     40 H5         -19.4020   -21.9760     0.1000 hc         1 06I       0.054700
     41 H6         -17.9860   -21.0780     0.6740 hc         1 06I       0.054700
     42 H8         -17.7030   -19.8610    -4.7150 h5         1 06I       0.054100
     43 H10        -15.0550   -29.0650    -0.8080 ha         1 06I       0.188000
     44 H12        -14.1880   -30.6100    -1.7650 h4         1 06I       0.211000
     45 H13        -11.3930   -28.6250     1.5670 h4         1 06I       0.221000
     46 H14        -12.4060   -24.5960     2.4470 ha         1 06I       0.132000
     47 H15        -10.9050   -23.7250     4.2390 ha         1 06I       0.130000
     48 H16         -9.6850   -25.3340     5.7160 h4         1 06I       0.025100
     49 H9         -15.5530   -25.0890    -0.5200 ha         1 06I       0.132000
     50 H17        -11.3490   -28.5960     3.7740 h4         1 06I       0.036100
     51 H1         -17.2090   -28.8810     0.6750 ha         1 06I       0.130000
     52 H11        -10.0150   -32.5210    -0.3850 hn         1 06I       0.347500
     53 H19        -13.2530   -32.4980    -2.6980 hn         1 06I       0.466000
     54 O2         -17.9290   -24.0770    -1.3880 os         1 06I      -0.341100
@<TRIPOS>BOND
     1     1     2 1   
     2     1     4 1   
     3     1    31 2   
     4     2    13 2   
     5     2    26 1   
     6     3    16 1   
     7     3    17 1   
     8     3    53 1   
     9     4    18 1   
    10     4    24 1   
    11     5     6 ar  
    12     5    27 ar  
    13     5    35 1   
    14     6     7 ar  
    15     6    36 1   
    16     7    22 ar  
    17     7    54 1   
    18     8     9 1   
    19     8    37 1   
    20     8    38 1   
    21     8    54 1   
    22     9    10 2   
    23     9    28 1   
    24    10    11 1   
    25    10    34 1   
    26    11    39 1   
    27    11    40 1   
    28    11    41 1   
    29    12    28 2   
    30    12    34 1   
    31    12    42 1   
    32    13    14 1   
    33    13    43 1   
    34    14    18 2   
    35    14    23 1   
    36    15    23 1   
    37    15    29 1   
    38    15    32 2   
    39    16    23 2   
    40    16    44 1   
    41    17    29 1   
    42    17    33 2   
    43    18    45 1   
    44    19    20 ar  
    45    19    24 ar  
    46    19    46 1   
    47    20    21 ar  
    48    20    47 1   
    49    21    30 ar  
    50    21    48 1   
    51    22    26 ar  
    52    22    49 1   
    53    24    25 ar  
    54    25    30 ar  
    55    25    50 1   
    56    26    27 ar  
    57    27    51 1   
    58    29    52 1   
@<TRIPOS>SUBSTRUCTURE
     1 06I         1 TEMP              0 ****  ****    0 ROOT
