@<TRIPOS>MOLECULE
06J
   66    70     1     0     0
SMALL
No Charge or Current Charge


@<TRIPOS>ATOM
      1 C1          -2.4770     3.6380     0.4250 c3         1 06J      -0.019800
      2 C2          -2.2530     2.1470     0.4500 cc         1 06J      -0.063300
      3 C3          -1.1270     1.4690     0.8680 cd         1 06J      -0.172300
      4 N1          -1.4810     0.1120     0.7820 na         1 06J       0.119200
      5 C4          -2.6760    -0.0760     0.1020 cd         1 06J      -0.081300
      6 C5          -3.1880     1.1850    -0.0430 cc         1 06J      -0.258600
      7 C6          -4.5220     1.4210    -0.6570 c          1 06J       0.616700
      8 O1          -5.0610     2.5180    -0.7350 o          1 06J      -0.545100
      9 C7          -5.2210     0.1560    -1.1960 c6         1 06J      -0.175400
     10 C8          -4.9080    -1.1500    -0.4000 c6         1 06J      -0.033000
     11 C9          -3.3620    -1.3540    -0.3220 c6         1 06J      -0.013100
     12 C10         -5.5210    -1.0650     1.0330 c3         1 06J      -0.087100
     13 C11         -5.5650    -2.3710    -1.1080 c3         1 06J      -0.087100
     14 C12         -0.4630    -0.8150     0.5440 ca         1 06J       0.061800
     15 C13         -0.2900    -1.9170     1.3940 ca         1 06J      -0.186000
     16 C14          0.7960    -2.7890     1.2140 ca         1 06J      -0.030000
     17 C15          1.7660    -2.5430     0.2080 ca         1 06J      -0.250600
     18 C16          1.5780    -1.4240    -0.6340 ca         1 06J       0.399000
     19 C17          0.4460    -0.6160    -0.5000 ca         1 06J      -0.214000
     20 N2           2.5510    -1.0100    -1.5330 nu         1 06J      -0.952200
     21 C18          3.0350     0.3920    -1.6060 c3         1 06J       0.219800
     22 C19          3.5260     0.9490    -0.2200 c5         1 06J       0.151500
     23 C20          5.0070     0.5580     0.0720 c5         1 06J      -0.100400
     24 C21          5.7660     1.7950    -0.4540 c5         1 06J      -0.090400
     25 C22          4.9070     2.8850     0.2130 c5         1 06J       0.170800
     26 N3           3.5260     2.4560    -0.1360 n3         1 06J      -0.744600
     27 C23          2.4680     3.1040     0.6880 c3         1 06J       0.182800
     28 C24          0.9970     2.8030     0.2970 c3         1 06J      -0.080400
     29 C25          0.2070     2.0030     1.3690 c3         1 06J      -0.006100
     30 C26          2.9740    -3.4420     0.0650 c          1 06J       0.626700
     31 O2           3.8190    -3.3080    -0.8060 o          1 06J      -0.637100
     32 N4           3.1230    -4.4520     0.9450 nt         1 06J      -0.595000
     33 H1          -2.4770     4.0160    -0.6050 hc         1 06J       0.044367
     34 H2          -3.4350     3.9000     0.8870 hc         1 06J       0.044367
     35 H3          -1.6970     4.1710     0.9800 hc         1 06J       0.044367
     36 H4          -6.2960     0.3470    -1.3110 hc         1 06J       0.066700
     37 H5          -4.8110     0.0140    -2.2050 hc         1 06J       0.066700
     38 H6          -2.9740    -1.6610    -1.3030 hc         1 06J       0.060200
     39 H7          -3.1210    -2.1740     0.3690 hc         1 06J       0.060200
     40 H8          -6.6070    -0.9160     0.9940 hc         1 06J       0.037700
     41 H9          -5.3350    -1.9840     1.6030 hc         1 06J       0.037700
     42 H10         -5.0990    -0.2350     1.6110 hc         1 06J       0.037700
     43 H11         -5.1890    -2.4910    -2.1320 hc         1 06J       0.037700
     44 H12         -5.3590    -3.3050    -0.5720 hc         1 06J       0.037700
     45 H13         -6.6550    -2.2590    -1.1720 hc         1 06J       0.037700
     46 H14         -0.9930    -2.0910     2.2050 ha         1 06J       0.131000
     47 H15          0.8870    -3.6330     1.8940 ha         1 06J       0.110000
     48 H16          0.3000     0.2200    -1.1730 ha         1 06J       0.140000
     49 H17          3.2910    -1.7220    -1.6000 hn         1 06J       0.520000
     50 H18          3.8510     0.4770    -2.3370 h1         1 06J       0.063700
     51 H19          2.2280     1.0370    -1.9740 h1         1 06J       0.063700
     52 H20          2.8790     0.5290     0.5630 h1         1 06J       0.054700
     53 H21          5.1720     0.4150     1.1470 hc         1 06J       0.051200
     54 H22          5.3120    -0.3700    -0.4250 hc         1 06J       0.051200
     55 H23          6.8110     1.8250    -0.1270 hc         1 06J       0.052700
     56 H24          5.7490     1.8680    -1.5480 hc         1 06J       0.052700
     57 H25          5.0630     2.8920     1.3010 h1         1 06J       0.039200
     58 H26          5.1380     3.8890    -0.1690 h1         1 06J       0.039200
     59 H28          2.6140     2.8390     1.7440 h1         1 06J       0.030200
     60 H29          2.6020     4.1930     0.6280 h1         1 06J       0.030200
     61 H30          0.4880     3.7580     0.1290 hc         1 06J       0.053700
     62 H31          0.9650     2.2870    -0.6650 hc         1 06J       0.053700
     63 H32          0.0400     2.6510     2.2380 hc         1 06J       0.050700
     64 H33          0.8340     1.1800     1.7330 hc         1 06J       0.050700
     65 H34          2.4480    -4.5940     1.6790 hn         1 06J       0.313000
     66 H35          3.9230    -5.0610     0.8590 hn         1 06J       0.313000
@<TRIPOS>BOND
     1     1     2 1   
     2     1    33 1   
     3     1    34 1   
     4     1    35 1   
     5     2     3 2   
     6     2     6 1   
     7     3     4 1   
     8     3    29 1   
     9     4     5 1   
    10     4    14 1   
    11     5     6 2   
    12     5    11 1   
    13     6     7 1   
    14     7     8 2   
    15     7     9 1   
    16     9    10 1   
    17     9    36 1   
    18     9    37 1   
    19    10    11 1   
    20    10    12 1   
    21    10    13 1   
    22    11    38 1   
    23    11    39 1   
    24    12    40 1   
    25    12    41 1   
    26    12    42 1   
    27    13    43 1   
    28    13    44 1   
    29    13    45 1   
    30    14    15 ar  
    31    14    19 ar  
    32    15    16 ar  
    33    15    46 1   
    34    16    17 ar  
    35    16    47 1   
    36    17    18 ar  
    37    17    30 1   
    38    18    19 ar  
    39    18    20 1   
    40    19    48 1   
    41    20    21 1   
    42    20    49 1   
    43    21    22 1   
    44    21    50 1   
    45    21    51 1   
    46    22    23 1   
    47    22    26 1   
    48    22    52 1   
    49    23    24 1   
    50    23    53 1   
    51    23    54 1   
    52    24    25 1   
    53    24    55 1   
    54    24    56 1   
    55    25    26 1   
    56    25    57 1   
    57    25    58 1   
    58    26    27 1   
    59    27    28 1   
    60    27    59 1   
    61    27    60 1   
    62    28    29 1   
    63    28    61 1   
    64    28    62 1   
    65    29    63 1   
    66    29    64 1   
    67    30    31 2   
    68    30    32 1   
    69    32    65 1   
    70    32    66 1   
@<TRIPOS>SUBSTRUCTURE
     1 06J         1 TEMP              0 ****  ****    0 ROOT
