@<TRIPOS>MOLECULE
06J
   66    70     1     0     0
SMALL
abcg2


@<TRIPOS>ATOM
      1 C1          -2.5030     3.6110     0.9520 c3         1 06J      -0.019800
      2 C2          -2.2890     2.1770     0.6020 cc         1 06J      -0.063300
      3 C3          -1.1090     1.4920     0.6760 cd         1 06J      -0.172300
      4 N1          -1.3550     0.1710     0.2810 na         1 06J       0.119200
      5 C4          -2.6600     0.0300    -0.0570 cd         1 06J      -0.081300
      6 C5          -3.2730     1.2530     0.1250 cc         1 06J      -0.258600
      7 C6          -4.6700     1.4470    -0.1900 c          1 06J       0.616700
      8 O1          -5.2660     2.4950     0.0060 o          1 06J      -0.545100
      9 C7          -5.3480     0.2650    -0.8520 c6         1 06J      -0.175400
     10 C8          -4.8330    -1.1150    -0.4200 c6         1 06J      -0.033000
     11 C9          -3.3100    -1.1800    -0.6270 c6         1 06J      -0.013100
     12 C10         -5.1830    -1.3740     1.0470 c3         1 06J      -0.087100
     13 C11         -5.4990    -2.1850    -1.2820 c3         1 06J      -0.087100
     14 C12         -0.3750    -0.8480     0.2400 ca         1 06J       0.061800
     15 C13         -0.5260    -2.0330     0.9540 ca         1 06J      -0.186000
     16 C14          0.4960    -2.9600     0.8880 ca         1 06J      -0.030000
     17 C15          1.6870    -2.7340     0.1930 ca         1 06J      -0.250600
     18 C16          1.8410    -1.5140    -0.5170 ca         1 06J       0.399000
     19 C17          0.7600    -0.6180    -0.5020 ca         1 06J      -0.214000
     20 N2           2.9660    -1.1590    -1.1890 nu         1 06J      -0.952200
     21 C18          3.2940     0.2290    -1.4340 c3         1 06J       0.219800
     22 C19          3.5480     1.0250    -0.1380 c5         1 06J       0.151500
     23 C20          4.9690     0.7910     0.3800 c5         1 06J      -0.100400
     24 C21          5.7480     1.9170    -0.2910 c5         1 06J      -0.090400
     25 C22          4.7670     3.0720    -0.1720 c5         1 06J       0.170800
     26 N3           3.4500     2.4700    -0.3750 n3         1 06J      -0.744600
     27 C23          2.4110     3.1770     0.3540 c3         1 06J       0.182800
     28 C24          0.9700     2.7840    -0.0120 c3         1 06J      -0.080400
     29 C25          0.2410     1.9900     1.0850 c3         1 06J      -0.006100
     30 C26          2.7820    -3.7390     0.2100 c          1 06J       0.626700
     31 O2           3.6670    -3.7460    -0.6460 o          1 06J      -0.637100
     32 N4           2.7640    -4.6500     1.1970 nt         1 06J      -0.595000
     33 H1          -2.8580     4.1850     0.0950 hc         1 06J       0.044367
     34 H2          -3.2500     3.7250     1.7380 hc         1 06J       0.044367
     35 H3          -1.5820     4.0770     1.3000 hc         1 06J       0.044367
     36 H4          -6.4270     0.3370    -0.6890 hc         1 06J       0.066700
     37 H5          -5.1920     0.3820    -1.9330 hc         1 06J       0.066700
     38 H6          -3.0880    -1.2280    -1.7010 hc         1 06J       0.060200
     39 H7          -2.9190    -2.1040    -0.1970 hc         1 06J       0.060200
     40 H8          -6.2640    -1.3320     1.1940 hc         1 06J       0.037700
     41 H9          -4.8470    -2.3660     1.3550 hc         1 06J       0.037700
     42 H10         -4.7280    -0.6470     1.7220 hc         1 06J       0.037700
     43 H11         -5.2800    -2.0380    -2.3410 hc         1 06J       0.037700
     44 H12         -5.1540    -3.1830    -1.0030 hc         1 06J       0.037700
     45 H13         -6.5840    -2.1620    -1.1590 hc         1 06J       0.037700
     46 H14         -1.4040    -2.2240     1.5550 ha         1 06J       0.131000
     47 H15          0.3530    -3.8950     1.4130 ha         1 06J       0.110000
     48 H16          0.8090     0.2900    -1.0810 ha         1 06J       0.140000
     49 H17          3.7130    -1.8340    -1.1930 hn         1 06J       0.520000
     50 H18          4.1850     0.2450    -2.0630 h1         1 06J       0.063700
     51 H19          2.5140     0.7140    -2.0260 h1         1 06J       0.063700
     52 H20          2.8140     0.7120     0.6120 h1         1 06J       0.054700
     53 H21          5.0040     0.9130     1.4660 hc         1 06J       0.051200
     54 H22          5.3450    -0.2080     0.1510 hc         1 06J       0.051200
     55 H23          6.7040     2.1320     0.1860 hc         1 06J       0.052700
     56 H24          5.9490     1.6800    -1.3390 hc         1 06J       0.052700
     57 H25          4.8550     3.5140     0.8320 h1         1 06J       0.039200
     58 H26          4.9520     3.8730    -0.8930 h1         1 06J       0.039200
     59 H28          2.5480     3.0750     1.4450 h1         1 06J       0.030200
     60 H29          2.5490     4.2390     0.1410 h1         1 06J       0.030200
     61 H30          0.3890     3.6870    -0.2110 hc         1 06J       0.053700
     62 H31          0.9700     2.2370    -0.9560 hc         1 06J       0.053700
     63 H32          0.1230     2.6420     1.9530 hc         1 06J       0.050700
     64 H33          0.8600     1.1620     1.4340 hc         1 06J       0.050700
     65 H34          2.1870    -4.5550     2.0140 hn         1 06J       0.313000
     66 H35          3.5190    -5.3130     1.2560 hn         1 06J       0.313000
@<TRIPOS>BOND
     1     1     2 1   
     2     1    33 1   
     3     1    34 1   
     4     1    35 1   
     5     2     3 2   
     6     2     6 1   
     7     3     4 1   
     8     3    29 1   
     9     4     5 1   
    10     4    14 1   
    11     5     6 2   
    12     5    11 1   
    13     6     7 1   
    14     7     8 2   
    15     7     9 1   
    16     9    10 1   
    17     9    36 1   
    18     9    37 1   
    19    10    11 1   
    20    10    12 1   
    21    10    13 1   
    22    11    38 1   
    23    11    39 1   
    24    12    40 1   
    25    12    41 1   
    26    12    42 1   
    27    13    43 1   
    28    13    44 1   
    29    13    45 1   
    30    14    15 ar  
    31    14    19 ar  
    32    15    16 ar  
    33    15    46 1   
    34    16    17 ar  
    35    16    47 1   
    36    17    18 ar  
    37    17    30 1   
    38    18    19 ar  
    39    18    20 1   
    40    19    48 1   
    41    20    21 1   
    42    20    49 1   
    43    21    22 1   
    44    21    50 1   
    45    21    51 1   
    46    22    23 1   
    47    22    26 1   
    48    22    52 1   
    49    23    24 1   
    50    23    53 1   
    51    23    54 1   
    52    24    25 1   
    53    24    55 1   
    54    24    56 1   
    55    25    26 1   
    56    25    57 1   
    57    25    58 1   
    58    26    27 1   
    59    27    28 1   
    60    27    59 1   
    61    27    60 1   
    62    28    29 1   
    63    28    61 1   
    64    28    62 1   
    65    29    63 1   
    66    29    64 1   
    67    30    31 2   
    68    30    32 1   
    69    32    65 1   
    70    32    66 1   
@<TRIPOS>SUBSTRUCTURE
     1 06J         1 TEMP              0 ****  ****    0 ROOT
