@<TRIPOS>MOLECULE
06K
   13    14     1     0     0
SMALL
No Charge or Current Charge


@<TRIPOS>ATOM
      1 C2         -20.8140   -11.9190   -13.0980 ca         1 06K       0.216000
      2 C4         -19.3010   -10.6460   -11.9420 ca         1 06K       0.248000
      3 C5         -19.6970   -11.2760   -10.7950 ca         1 06K      -0.207200
      4 C6         -20.6930   -12.2630   -10.8300 ca         1 06K       0.242000
      5 C8         -18.1230    -9.8040   -10.3100 cc         1 06K       0.445700
      6 N1         -21.2640   -12.5910   -12.0080 nb         1 06K      -0.157000
      7 N3         -19.8570   -10.9580   -13.1300 nb         1 06K      -0.096000
      8 N7         -18.9690   -10.7610    -9.7610 na         1 06K      -0.278600
      9 N9         -18.3050    -9.7120   -11.6460 nd         1 06K      -0.626700
     10 Cl1        -21.5520   -12.3410   -14.6360 cl         1 06K      -0.105000
     11 Cl2        -21.2340   -13.0990    -9.3820 cl         1 06K      -0.134000
     12 H1         -17.4250    -9.2310    -9.7110 h5         1 06K       0.075800
     13 H2         -19.0190   -11.0110    -8.7800 hn         1 06K       0.376000
@<TRIPOS>BOND
     1     1     6 ar  
     2     1     7 ar  
     3     1    10 1   
     4     2     3 ar  
     5     2     7 ar  
     6     2     9 1   
     7     3     4 ar  
     8     3     8 1   
     9     4     6 ar  
    10     4    11 1   
    11     5     8 1   
    12     5     9 2   
    13     5    12 1   
    14     8    13 1   
@<TRIPOS>SUBSTRUCTURE
     1 06K         1 TEMP              0 ****  ****    0 ROOT
