@<TRIPOS>MOLECULE
06K
   13    14     1     0     0
SMALL
bcc


@<TRIPOS>ATOM
      1 C2         -20.7680   -11.8820   -13.0600 ca         1 06K       0.742000
      2 C4         -19.3160   -10.6670   -11.9210 ca         1 06K       0.576300
      3 C5         -19.7140   -11.3110   -10.7360 ca         1 06K      -0.337800
      4 C6         -20.7000   -12.2690   -10.8380 ca         1 06K       0.570300
      5 C8         -18.1690    -9.8380   -10.3600 cc         1 06K       0.445700
      6 N1         -21.2220   -12.5500   -12.0080 nb         1 06K      -0.683000
      7 N3         -19.8480   -10.9550   -13.1060 nb         1 06K      -0.622000
      8 N7         -18.9560   -10.7530    -9.7550 na         1 06K      -0.228300
      9 N9         -18.3510    -9.7530   -11.6550 nd         1 06K      -0.626700
     10 CL1        -21.5040   -12.3060   -14.5640 cl         1 06K      -0.105000
     11 CL2        -21.2730   -13.1110    -9.4620 cl         1 06K      -0.134000
     12 H1         -17.4650    -9.2470    -9.7940 h5         1 06K       0.075800
     13 H2         -18.9670   -10.9700    -8.7690 hn         1 06K       0.325700
@<TRIPOS>BOND
     1     1     6 ar  
     2     1     7 ar  
     3     1    10 1   
     4     2     3 ar  
     5     2     7 ar  
     6     2     9 1   
     7     3     4 ar  
     8     3     8 1   
     9     4     6 ar  
    10     4    11 1   
    11     5     8 1   
    12     5     9 2   
    13     5    12 1   
    14     8    13 1   
@<TRIPOS>SUBSTRUCTURE
     1 06K         1 TEMP              0 ****  ****    0 ROOT
