@<TRIPOS>MOLECULE
06L
   80    84     1     0     0
SMALL
No Charge or Current Charge


@<TRIPOS>ATOM
      1 C4          25.3600    -9.8350   -15.8950 c6         1 06L      -0.048700
      2 C5          26.7520    -9.2840   -16.4430 c6         1 06L      -0.018000
      3 C6          26.6520    -7.6670   -16.5680 c6         1 06L      -0.015000
      4 C7          26.2870    -7.0510   -15.1290 c6         1 06L      -0.045700
      5 C8          26.3630    -5.3990   -14.9660 c6         1 06L      -0.022000
      6 C10         27.8510    -4.9180   -15.5160 c6         1 06L      -0.046700
      7 C13         28.2670    -3.4000   -15.2350 c6         1 06L      -0.023000
      8 C15         27.4870    -2.3640   -16.1130 c3         1 06L      -0.078600
      9 C17         26.6280    -3.4690   -13.0880 c6         1 06L      -0.108400
     10 C20         25.0130    -9.2220   -14.5100 c6         1 06L      -0.065400
     11 C21         25.5800    -7.2430   -17.6510 c3         1 06L      -0.087100
     12 C22         27.9470    -9.7130   -15.4830 c3         1 06L      -0.083100
     13 C24         27.0140   -11.5380   -17.8050 c6         1 06L      -0.036400
     14 C26         23.7590   -12.2850   -13.9880 c2         1 06L      -0.083400
     15 C28         22.4000   -11.8910   -13.4410 c3         1 06L      -0.058900
     16 C1          24.5390   -11.7950   -18.4430 c          1 06L       0.724000
     17 C11         28.1500    -5.4400   -17.0170 c6         1 06L      -0.067400
     18 C12         28.0330    -7.0130   -17.0360 c6         1 06L      -0.072400
     19 C14         29.7840    -3.1920   -15.5730 c3         1 06L      -0.078600
     20 C16         28.0500    -3.1340   -13.6720 c6         1 06L       0.174300
     21 C18         26.2260    -4.9550   -13.4040 c6         1 06L      -0.070400
     22 C19         24.9540    -7.6750   -14.5470 c6         1 06L      -0.067400
     23 C2          25.6280   -12.0300   -17.3130 c5         1 06L      -0.183000
     24 C23         27.0540    -9.9790   -17.8370 c6         1 06L      -0.064400
     25 C25         23.9860   -12.1720   -15.5100 c5         1 06L      -0.025500
     26 C27         24.7290   -12.7710   -13.1920 c2         1 06L      -0.359000
     27 C29         24.1990   -13.6080   -16.1240 c5         1 06L      -0.060400
     28 C3          25.3030   -11.4040   -15.9090 c5         1 06L      -0.020700
     29 C30         25.5650   -13.5300   -16.8810 c5         1 06L      -0.051400
     30 C9          25.1990    -4.6330   -15.7390 c3         1 06L      -0.077100
     31 O1          23.6760   -10.9370   -18.3370 o          1 06L      -0.734000
     32 O2          24.5730   -12.5120   -19.4350 o          1 06L      -0.734000
     33 O3          28.3700    -1.7800   -13.3240 oh         1 06L      -0.665000
     34 H1          24.5690    -9.5030   -16.5700 hc         1 06L       0.097700
     35 H2          27.0730    -7.3770   -14.4430 hc         1 06L       0.035700
     36 H3          28.5530    -5.4910   -14.8940 hc         1 06L       0.037700
     37 H4          27.9380    -1.3660   -16.0450 hc         1 06L       0.032367
     38 H5          27.4920    -2.6440   -17.1730 hc         1 06L       0.032367
     39 H6          26.4470    -2.2450   -15.8020 hc         1 06L       0.032367
     40 H7          26.6260    -3.3200   -12.0000 hc         1 06L       0.037200
     41 H8          25.8820    -2.7720   -13.4910 hc         1 06L       0.037200
     42 H9          24.0340    -9.5840   -14.1790 hc         1 06L       0.032200
     43 H10         25.7310    -9.5530   -13.7490 hc         1 06L       0.032200
     44 H11         24.5580    -7.5330   -17.3960 hc         1 06L       0.038033
     45 H12         25.5530    -6.1680   -17.8170 hc         1 06L       0.038033
     46 H13         25.8000    -7.6450   -18.6430 hc         1 06L       0.038033
     47 H14         27.8990    -9.2780   -14.4830 hc         1 06L       0.022367
     48 H15         28.0040   -10.7900   -15.3140 hc         1 06L       0.022367
     49 H16         28.9220    -9.4510   -15.9050 hc         1 06L       0.022367
     50 H17         27.2140   -11.9310   -18.8100 hc         1 06L       0.026700
     51 H18         27.8150   -11.9390   -17.1710 hc         1 06L       0.026700
     52 H19         22.3510   -12.0030   -12.3510 hc         1 06L       0.031033
     53 H20         22.1590   -10.8480   -13.6760 hc         1 06L       0.031033
     54 H21         21.6110   -12.5180   -13.8730 hc         1 06L       0.031033
     55 H22         29.1700    -5.2000   -17.3800 hc         1 06L       0.034200
     56 H23         27.4820    -5.0080   -17.7880 hc         1 06L       0.034200
     57 H24         28.2790    -7.3590   -18.0480 hc         1 06L       0.038700
     58 H25         28.8490    -7.3710   -16.4000 hc         1 06L       0.038700
     59 H26         30.4130    -3.9360   -15.0690 hc         1 06L       0.032367
     60 H27         29.9820    -3.2600   -16.6480 hc         1 06L       0.032367
     61 H28         30.1400    -2.2030   -15.2580 hc         1 06L       0.032367
     62 H29         28.7540    -3.7980   -13.1470 h1         1 06L       0.023700
     63 H30         25.2000    -5.1260   -13.0530 hc         1 06L       0.039700
     64 H31         26.8610    -5.6140   -12.7970 hc         1 06L       0.039700
     65 H32         24.6980    -7.3340   -13.5210 hc         1 06L       0.027700
     66 H33         24.0980    -7.3760   -15.1620 hc         1 06L       0.027700
     67 H34         28.0360    -9.6630   -18.2130 hc         1 06L       0.036200
     68 H35         26.3310    -9.6690   -18.5980 hc         1 06L       0.036200
     69 H36         23.1130   -11.6940   -15.9680 hc         1 06L       0.084700
     70 H37         24.5810   -12.8760   -12.1170 ha         1 06L       0.152000
     71 H38         25.6950   -13.0970   -13.5740 ha         1 06L       0.152000
     72 H39         23.3820   -13.8520   -16.8130 hc         1 06L       0.031700
     73 H40         24.2090   -14.4040   -15.3710 hc         1 06L       0.031700
     74 H41         26.0880   -11.6870   -15.2050 hc         1 06L       0.010700
     75 H42         25.6150   -14.2290   -17.7230 hc         1 06L       0.026200
     76 H43         26.3960   -13.7930   -16.2140 hc         1 06L       0.026200
     77 H44         24.3050    -5.2530   -15.8480 hc         1 06L       0.031033
     78 H45         24.8630    -3.7320   -15.2180 hc         1 06L       0.031033
     79 H46         25.4990    -4.3110   -16.7400 hc         1 06L       0.031033
     80 H48         28.2600    -1.7080   -12.3520 ho         1 06L       0.432000
@<TRIPOS>BOND
     1     1     2 1   
     2     1    10 1   
     3     1    28 1   
     4     1    34 1   
     5     2     3 1   
     6     2    12 1   
     7     2    24 1   
     8     3     4 1   
     9     3    11 1   
    10     3    18 1   
    11     4     5 1   
    12     4    22 1   
    13     4    35 1   
    14     5     6 1   
    15     5    21 1   
    16     5    30 1   
    17     6     7 1   
    18     6    17 1   
    19     6    36 1   
    20     7     8 1   
    21     7    19 1   
    22     7    20 1   
    23     8    37 1   
    24     8    38 1   
    25     8    39 1   
    26     9    20 1   
    27     9    21 1   
    28     9    40 1   
    29     9    41 1   
    30    10    22 1   
    31    10    42 1   
    32    10    43 1   
    33    11    44 1   
    34    11    45 1   
    35    11    46 1   
    36    12    47 1   
    37    12    48 1   
    38    12    49 1   
    39    13    23 1   
    40    13    24 1   
    41    13    50 1   
    42    13    51 1   
    43    14    15 1   
    44    14    25 1   
    45    14    26 2   
    46    15    52 1   
    47    15    53 1   
    48    15    54 1   
    49    16    23 1   
    50    16    31 1   
    51    16    32 1   
    52    17    18 1   
    53    17    55 1   
    54    17    56 1   
    55    18    57 1   
    56    18    58 1   
    57    19    59 1   
    58    19    60 1   
    59    19    61 1   
    60    20    33 1   
    61    20    62 1   
    62    21    63 1   
    63    21    64 1   
    64    22    65 1   
    65    22    66 1   
    66    23    28 1   
    67    23    29 1   
    68    24    67 1   
    69    24    68 1   
    70    25    27 1   
    71    25    28 1   
    72    25    69 1   
    73    26    70 1   
    74    26    71 1   
    75    27    29 1   
    76    27    72 1   
    77    27    73 1   
    78    28    74 1   
    79    29    75 1   
    80    29    76 1   
    81    30    77 1   
    82    30    78 1   
    83    30    79 1   
    84    33    80 1   
@<TRIPOS>SUBSTRUCTURE
     1 06L         1 TEMP              0 ****  ****    0 ROOT
