@<TRIPOS>MOLECULE
06L
   80    84     1     0     0
SMALL
abcg2


@<TRIPOS>ATOM
      1 C4          25.3560    -9.7280   -15.8790 c6         1 06L      -0.048700
      2 C5          26.7410    -9.1950   -16.3450 c6         1 06L      -0.018000
      3 C6          26.6080    -7.6270   -16.5440 c6         1 06L      -0.015000
      4 C7          26.2670    -6.9920   -15.1620 c6         1 06L      -0.045700
      5 C8          26.3510    -5.4330   -15.0680 c6         1 06L      -0.022000
      6 C10         27.7790    -5.0400   -15.5370 c6         1 06L      -0.046700
      7 C13         28.2500    -3.5840   -15.2540 c6         1 06L      -0.023000
      8 C15         27.5520    -2.5230   -16.1120 c3         1 06L      -0.078600
      9 C17         26.6280    -3.6170   -13.2870 c6         1 06L      -0.108400
     10 C20         24.9620    -9.1040   -14.5460 c6         1 06L      -0.065400
     11 C21         25.5170    -7.3030   -17.5840 c3         1 06L      -0.087100
     12 C22         27.8290    -9.5490   -15.3090 c3         1 06L      -0.083100
     13 C24         27.0490   -11.4250   -17.6410 c6         1 06L      -0.036400
     14 C26         23.9370   -12.2420   -13.9240 c2         1 06L      -0.083400
     15 C28         22.5290   -12.5080   -13.4770 c3         1 06L      -0.058900
     16 C1          24.6480   -11.4330   -18.4290 c          1 06L       0.724000
     17 C11         28.0110    -5.5120   -16.9700 c6         1 06L      -0.067400
     18 C12         27.9260    -7.0320   -17.0670 c6         1 06L      -0.072400
     19 C14         29.7560    -3.4920   -15.5460 c3         1 06L      -0.078600
     20 C16         28.0470    -3.3280   -13.7500 c6         1 06L       0.174300
     21 C18         26.2270    -5.0530   -13.5810 c6         1 06L      -0.070400
     22 C19         24.9700    -7.5770   -14.5930 c6         1 06L      -0.067400
     23 C2          25.6260   -11.8310   -17.2820 c5         1 06L      -0.183000
     24 C23         27.1800    -9.8980   -17.6550 c6         1 06L      -0.064400
     25 C25         24.0670   -11.9850   -15.4060 c5         1 06L      -0.025500
     26 C27         24.9490   -12.2990   -13.0580 c2         1 06L      -0.359000
     27 C29         24.0990   -13.3400   -16.1880 c5         1 06L      -0.060400
     28 C3          25.3230   -11.2510   -15.8920 c5         1 06L      -0.020700
     29 C30         25.4010   -13.3200   -17.0010 c5         1 06L      -0.051400
     30 C9          25.2220    -4.7240   -15.8320 c3         1 06L      -0.077100
     31 O1          23.5620   -10.8830   -18.1480 o          1 06L      -0.734000
     32 O2          25.0180   -11.7480   -19.5800 o          1 06L      -0.734000
     33 O3          28.4300    -2.0000   -13.4520 oh         1 06L      -0.665000
     34 H1          24.6120    -9.4100   -16.6130 hc         1 06L       0.097700
     35 H2          27.0680    -7.3090   -14.4850 hc         1 06L       0.035700
     36 H3          28.4470    -5.6540   -14.9110 hc         1 06L       0.037700
     37 H4          28.0520    -1.5580   -16.0150 hc         1 06L       0.032367
     38 H5          27.5920    -2.7960   -17.1680 hc         1 06L       0.032367
     39 H6          26.5060    -2.3710   -15.8550 hc         1 06L       0.032367
     40 H7          26.5620    -3.4440   -12.2080 hc         1 06L       0.037200
     41 H8          25.9300    -2.9100   -13.7450 hc         1 06L       0.037200
     42 H9          23.9600    -9.4400   -14.2650 hc         1 06L       0.032200
     43 H10         25.6210    -9.4580   -13.7470 hc         1 06L       0.032200
     44 H11         24.5070    -7.3330   -17.1810 hc         1 06L       0.038033
     45 H12         25.6550    -6.3070   -17.9990 hc         1 06L       0.038033
     46 H13         25.5390    -7.9900   -18.4290 hc         1 06L       0.038033
     47 H14         27.6640    -9.1330   -14.3180 hc         1 06L       0.022367
     48 H15         27.9040   -10.6280   -15.1760 hc         1 06L       0.022367
     49 H16         28.8130    -9.2140   -15.6380 hc         1 06L       0.022367
     50 H17         27.3360   -11.8190   -18.6170 hc         1 06L       0.026700
     51 H18         27.7430   -11.8670   -16.9180 hc         1 06L       0.026700
     52 H19         22.4680   -12.7820   -12.4240 hc         1 06L       0.031033
     53 H20         21.9030   -11.6260   -13.6370 hc         1 06L       0.031033
     54 H21         22.0790   -13.3130   -14.0640 hc         1 06L       0.031033
     55 H22         29.0010    -5.2170   -17.3220 hc         1 06L       0.034200
     56 H23         27.3070    -5.0360   -17.6580 hc         1 06L       0.034200
     57 H24         28.0760    -7.3380   -18.1060 hc         1 06L       0.038700
     58 H25         28.7720    -7.4370   -16.5070 hc         1 06L       0.038700
     59 H26         30.3100    -4.2890   -15.0410 hc         1 06L       0.032367
     60 H27         29.9690    -3.5670   -16.6130 hc         1 06L       0.032367
     61 H28         30.1630    -2.5390   -15.2100 hc         1 06L       0.032367
     62 H29         28.7100    -4.0350   -13.2220 h1         1 06L       0.023700
     63 H30         25.2060    -5.2110   -13.2290 hc         1 06L       0.039700
     64 H31         26.8640    -5.7230   -12.9910 hc         1 06L       0.039700
     65 H32         24.8040    -7.2020   -13.5810 hc         1 06L       0.027700
     66 H33         24.1070    -7.2410   -15.1750 hc         1 06L       0.027700
     67 H34         28.2190    -9.6330   -17.8680 hc         1 06L       0.036200
     68 H35         26.6040    -9.5330   -18.5080 hc         1 06L       0.036200
     69 H36         23.1840   -11.4280   -15.7240 hc         1 06L       0.084700
     70 H37         24.7800   -12.5400   -12.0160 ha         1 06L       0.152000
     71 H38         25.9750   -12.1060   -13.3420 ha         1 06L       0.152000
     72 H39         23.2360   -13.4140   -16.8510 hc         1 06L       0.031700
     73 H40         24.0520   -14.2010   -15.5180 hc         1 06L       0.031700
     74 H41         26.1480   -11.6080   -15.2630 hc         1 06L       0.010700
     75 H42         25.3510   -13.9370   -17.9010 hc         1 06L       0.026200
     76 H43         26.2310   -13.7020   -16.3960 hc         1 06L       0.026200
     77 H44         24.2860    -5.2780   -15.7470 hc         1 06L       0.031033
     78 H45         25.0260    -3.7290   -15.4360 hc         1 06L       0.031033
     79 H46         25.4210    -4.6010   -16.8940 hc         1 06L       0.031033
     80 H48         28.3260    -1.8670   -12.5050 ho         1 06L       0.432000
@<TRIPOS>BOND
     1     1     2 1   
     2     1    10 1   
     3     1    28 1   
     4     1    34 1   
     5     2     3 1   
     6     2    12 1   
     7     2    24 1   
     8     3     4 1   
     9     3    11 1   
    10     3    18 1   
    11     4     5 1   
    12     4    22 1   
    13     4    35 1   
    14     5     6 1   
    15     5    21 1   
    16     5    30 1   
    17     6     7 1   
    18     6    17 1   
    19     6    36 1   
    20     7     8 1   
    21     7    19 1   
    22     7    20 1   
    23     8    37 1   
    24     8    38 1   
    25     8    39 1   
    26     9    20 1   
    27     9    21 1   
    28     9    40 1   
    29     9    41 1   
    30    10    22 1   
    31    10    42 1   
    32    10    43 1   
    33    11    44 1   
    34    11    45 1   
    35    11    46 1   
    36    12    47 1   
    37    12    48 1   
    38    12    49 1   
    39    13    23 1   
    40    13    24 1   
    41    13    50 1   
    42    13    51 1   
    43    14    15 1   
    44    14    25 1   
    45    14    26 2   
    46    15    52 1   
    47    15    53 1   
    48    15    54 1   
    49    16    23 1   
    50    16    31 1   
    51    16    32 1   
    52    17    18 1   
    53    17    55 1   
    54    17    56 1   
    55    18    57 1   
    56    18    58 1   
    57    19    59 1   
    58    19    60 1   
    59    19    61 1   
    60    20    33 1   
    61    20    62 1   
    62    21    63 1   
    63    21    64 1   
    64    22    65 1   
    65    22    66 1   
    66    23    28 1   
    67    23    29 1   
    68    24    67 1   
    69    24    68 1   
    70    25    27 1   
    71    25    28 1   
    72    25    69 1   
    73    26    70 1   
    74    26    71 1   
    75    27    29 1   
    76    27    72 1   
    77    27    73 1   
    78    28    74 1   
    79    29    75 1   
    80    29    76 1   
    81    30    77 1   
    82    30    78 1   
    83    30    79 1   
    84    33    80 1   
@<TRIPOS>SUBSTRUCTURE
     1 06L         1 TEMP              0 ****  ****    0 ROOT
