@<TRIPOS>MOLECULE
06M
   61    66     1     0     0
SMALL
abcg2


@<TRIPOS>ATOM
      1 C10       -125.9180  -171.1570   114.6920 ca         1 06M      -0.156000
      2 N12       -125.2420  -171.9740   112.5380 nb         1 06M      -0.671000
      3 C13       -126.4840  -172.4010   112.4100 ca         1 06M       0.352500
      4 C15       -128.6800  -172.8970   112.7660 cc         1 06M      -0.216200
      5 C20       -128.1260  -169.9270   118.9400 cx         1 06M      -0.407300
      6 C26       -127.2600  -170.6710   119.9090 cx         1 06M      -0.071400
      7 C28       -132.5060  -172.4270   117.1180 cc         1 06M      -0.041400
      8 C02       -134.4750  -172.7940   115.7480 c          1 06M       0.591600
      9 C03       -133.6730  -172.2630   114.6930 cc         1 06M      -0.265600
     10 C04       -132.3550  -171.8370   114.8200 cd         1 06M      -0.018800
     11 C05       -131.7440  -171.9180   116.1120 cd         1 06M      -0.191000
     12 C06       -130.3610  -171.5110   116.3680 ca         1 06M       0.220800
     13 C08       -128.2130  -171.3680   115.6240 cp         1 06M       0.210500
     14 C09       -127.2280  -171.6030   114.5480 cp         1 06M      -0.067500
     15 C11       -124.9790  -171.3580   113.6820 ca         1 06M       0.340900
     16 C14       -127.5410  -172.2670   113.3520 ca         1 06M      -0.092800
     17 C16       -128.2860  -173.3610   111.5430 cd         1 06M      -0.160100
     18 C19       -128.6400  -170.5920   117.7140 ca         1 06M       0.186300
     19 C23       -126.1300  -168.2130   117.9100 c3         1 06M      -0.224100
     20 C25       -128.6490  -170.2960   120.2940 cx         1 06M      -0.071400
     21 C27       -129.9760  -170.9190   117.5700 ca         1 06M      -0.196000
     22 C31       -135.3140  -172.3250   118.8400 c3         1 06M      -0.065200
     23 C32       -136.1080  -172.9330   119.9530 c2         1 06M      -0.219200
     24 C33       -135.9240  -172.6790   121.2430 c2         1 06M      -0.314000
     25 C34       -131.9600  -171.3530   113.5490 cd         1 06M      -0.166000
     26 C35       -133.0430  -171.5100   112.7150 cc         1 06M      -0.159000
     27 N07       -129.4720  -171.7140   115.3980 nb         1 06M      -0.165000
     28 N17       -126.9730  -173.0640   111.3280 na         1 06M      -0.327400
     29 N18       -127.7600  -170.8250   116.7480 nb         1 06M      -0.206000
     30 N22       -127.4670  -167.4440   120.0000 n2         1 06M      -0.760900
     31 N29       -133.7880  -172.8630   116.9540 n          1 06M      -0.278000
     32 N36       -134.0680  -172.0580   113.4070 na         1 06M      -0.076000
     33 O01       -135.6390  -173.1630   115.6400 o          1 06M      -0.567000
     34 O24       -128.7300  -167.6980   117.7120 o          1 06M      -0.507000
     35 S21       -127.7290  -168.1780   118.6800 s6         1 06M       0.864500
     36 H1        -125.6140  -170.6460   115.5930 ha         1 06M       0.133000
     37 H2        -129.6630  -172.9940   113.1910 ha         1 06M       0.231000
     38 H3        -127.0410  -171.7040   119.6700 hc         1 06M       0.085700
     39 H4        -126.4440  -170.1300   120.3720 hc         1 06M       0.085700
     40 H5        -132.1160  -172.5490   118.1180 h4         1 06M       0.197000
     41 H6        -123.9650  -170.9990   113.8160 h4         1 06M       0.020100
     42 H7        -128.8570  -173.8910   110.7980 h4         1 06M       0.214000
     43 H8        -125.4070  -168.6700   118.5800 h1         1 06M       0.110367
     44 H9        -126.2020  -168.7780   116.9860 h1         1 06M       0.110367
     45 H10       -125.8560  -167.1800   117.7070 h1         1 06M       0.110367
     46 H11       -128.7800  -169.5150   121.0310 hc         1 06M       0.085700
     47 H12       -129.4050  -171.0700   120.3280 hc         1 06M       0.085700
     48 H13       -130.6940  -170.6960   118.3470 ha         1 06M       0.135000
     49 H14       -135.1380  -174.2100   117.7860 h1         1 06M       0.064700
     50 H15       -133.7570  -173.8210   118.7910 h1         1 06M       0.064700
     51 H16       -134.6470  -171.5520   119.2280 hc         1 06M       0.058700
     52 H17       -135.9910  -171.8470   118.1270 hc         1 06M       0.058700
     53 H18       -136.8790  -173.6400   119.6570 ha         1 06M       0.174000
     54 H19       -136.5260  -173.1550   122.0060 ha         1 06M       0.162500
     55 H20       -135.1660  -171.9830   121.5830 ha         1 06M       0.162500
     56 H21       -131.0050  -170.9410   113.2710 ha         1 06M       0.156000
     57 H22       -133.1480  -171.2680   111.6700 h4         1 06M       0.149000
     58 H23       -126.4450  -173.2970   110.5030 hn         1 06M       0.360000
     59 H24       -128.3230  -167.3130   120.5320 hn         1 06M       0.421400
     60 H26       -134.9780  -172.2760   113.0340 hn         1 06M       0.365000
     61 C30       -134.4980  -173.3940   118.1160 c3         1 06M       0.094000
@<TRIPOS>BOND
     1     1    14 ar  
     2     1    15 ar  
     3     1    36 1   
     4     2     3 ar  
     5     2    15 ar  
     6     3    16 ar  
     7     3    28 1   
     8     4    16 1   
     9     4    17 2   
    10     4    37 1   
    11     5     6 1   
    12     5    18 1   
    13     5    20 1   
    14     5    35 1   
    15     6    20 1   
    16     6    38 1   
    17     6    39 1   
    18     7    11 2   
    19     7    31 1   
    20     7    40 1   
    21     8     9 1   
    22     8    31 1   
    23     8    33 2   
    24     9    10 2   
    25     9    32 1   
    26    10    11 1   
    27    10    25 1   
    28    11    12 1   
    29    12    21 ar  
    30    12    27 ar  
    31    13    14 1   
    32    13    27 ar  
    33    13    29 ar  
    34    14    16 ar  
    35    15    41 1   
    36    17    28 1   
    37    17    42 1   
    38    18    21 ar  
    39    18    29 ar  
    40    19    35 1   
    41    19    43 1   
    42    19    44 1   
    43    19    45 1   
    44    20    46 1   
    45    20    47 1   
    46    21    48 1   
    47    22    23 1   
    48    22    51 1   
    49    22    52 1   
    50    22    61 1   
    51    23    24 2   
    52    23    53 1   
    53    24    54 1   
    54    24    55 1   
    55    25    26 2   
    56    25    56 1   
    57    26    32 1   
    58    26    57 1   
    59    28    58 1   
    60    30    35 2   
    61    30    59 1   
    62    31    61 1   
    63    32    60 1   
    64    34    35 2   
    65    49    61 1   
    66    50    61 1   
@<TRIPOS>SUBSTRUCTURE
     1 06M         1 TEMP              0 ****  ****    0 ROOT
