@<TRIPOS>MOLECULE
06M
   61    66     1     0     0
SMALL
No Charge or Current Charge


@<TRIPOS>ATOM
      1 C10        125.9000  -170.8120   114.4510 ca         1 06M      -0.156000
      2 N12       -125.2250  -171.7070   112.2970 nb         1 06M      -0.671000
      3 C13        126.3940  -172.3720   112.2610 ca         1 06M       0.352500
      4 C15       -128.4220  -173.1760   112.8720 cc         1 06M      -0.216200
      5 C20        128.0130  -170.3050   119.0700 cx         1 06M      -0.407300
      6 C26       -126.7820  -170.9420   119.6930 cx         1 06M      -0.071400
      7 C28        132.5700  -172.2870   117.0890 cc         1 06M      -0.041400
      8 C02       -134.5160  -172.7790   115.6620 c          1 06M       0.591600
      9 C03        133.6390  -172.3770   114.5550 cc         1 06M      -0.265600
     10 C04       -132.3480  -171.9700   114.7230 cd         1 06M      -0.018800
     11 C05        131.7390  -171.9130   116.0370 cd         1 06M      -0.191000
     12 C06       -130.3310  -171.5150   116.3040 ca         1 06M       0.220800
     13 C08        128.1360  -171.3620   115.5560 cp         1 06M       0.210500
     14 C09       -127.1440  -171.5010   114.4290 cp         1 06M      -0.067500
     15 C11        124.9890  -170.9390   113.3860 ca         1 06M       0.340900
     16 C14       -127.3450  -172.3030   113.2690 ca         1 06M      -0.092800
     17 C16        128.0950  -173.7220   111.6440 cd         1 06M      -0.160100
     18 C19       -128.5470  -170.7730   117.7490 ca         1 06M       0.186300
     19 C23        127.1780  -167.8830   117.9740 c3         1 06M      -0.224100
     20 C25       -128.1450  -171.1890   120.2980 cx         1 06M      -0.071400
     21 C27        129.9050  -171.0790   117.5760 ca         1 06M      -0.196000
     22 C31       -135.2920  -171.8780   118.8660 c3         1 06M      -0.065200
     23 C32        136.0780  -172.2850   120.0960 c2         1 06M      -0.219200
     24 C33       -135.7490  -171.9760   121.3600 c2         1 06M      -0.314000
     25 C34        131.8120  -171.6200   113.4620 cd         1 06M      -0.166000
     26 C35       -132.7660  -171.8330   112.5020 cc         1 06M      -0.159000
     27 N07        129.4280  -171.6620   115.3140 nb         1 06M      -0.165000
     28 N17       -126.8330  -173.2180   111.2610 na         1 06M      -0.327400
     29 N18        127.6680  -170.9230   116.7420 nb         1 06M      -0.206000
     30 N22       -127.7560  -168.0020   120.6490 n2         1 06M      -0.760900
     31 N29        133.9010  -172.7040   116.9320 n          1 06M      -0.278000
     32 N36       -133.8930  -172.3050   113.1810 na         1 06M      -0.076000
     33 O01        135.6750  -173.1370   115.4880 o          1 06M      -0.567000
     34 O24       -129.6490  -168.1630   118.8980 o          1 06M      -0.507000
     35 S21        128.2670  -168.4710   119.2690 s6         1 06M       0.864500
     36 H1        -125.6330  -170.1670   115.2830 ha         1 06M       0.133000
     37 H2         129.3330  -173.4070   113.4200 ha         1 06M       0.231000
     38 H3        -126.3080  -171.7700   119.1700 hc         1 06M       0.085700
     39 H4         126.0920  -170.3100   120.2470 hc         1 06M       0.085700
     40 H5        -132.2700  -172.3200   118.1310 h4         1 06M       0.197000
     41 H6         124.0390  -170.4050   113.4040 h4         1 06M       0.020100
     42 H7        -128.6530  -174.4270   111.0290 h4         1 06M       0.214000
     43 H8         126.1830  -168.2990   118.1580 h1         1 06M       0.110367
     44 H9        -127.5770  -168.2190   117.0120 h1         1 06M       0.110367
     45 H10        127.1630  -166.7900   118.0250 h1         1 06M       0.110367
     46 H11       -128.3630  -170.7240   121.2560 hc         1 06M       0.085700
     47 H12        128.5760  -172.1800   120.1730 hc         1 06M       0.085700
     48 H13       -130.5970  -170.9490   118.4010 ha         1 06M       0.135000
     49 H14        135.4980  -173.7800   117.8420 h1         1 06M       0.064700
     50 H15       -134.0390  -173.6400   118.8170 h1         1 06M       0.064700
     51 H16        134.4810  -171.1930   119.1400 hc         1 06M       0.058700
     52 H17       -135.9430  -171.3260   118.1750 hc         1 06M       0.058700
     53 H18        136.9780  -172.8710   119.8870 ha         1 06M       0.174000
     54 H19       -136.3610  -172.2980   122.2040 ha         1 06M       0.162500
     55 H20        134.8590  -171.3910   121.5970 ha         1 06M       0.162500
     56 H21       -130.8220  -171.2300   113.2570 ha         1 06M       0.156000
     57 H22        132.7430  -171.6840   111.4290 h4         1 06M       0.149000
     58 H23       -126.3210  -173.4320   110.4130 hn         1 06M       0.360000
     59 H24        128.5520  -167.5440   121.1070 hn         1 06M       0.421400
     60 H26       -134.7780  -172.5510   112.7420 hn         1 06M       0.365000
     61 C30        134.6920  -173.0910   118.1260 c3         1 06M       0.094000
@<TRIPOS>BOND
     1     1    14 ar  
     2     1    15 ar  
     3     1    36 1   
     4     2     3 ar  
     5     2    15 ar  
     6     3    16 ar  
     7     3    28 1   
     8     4    16 1   
     9     4    17 2   
    10     4    37 1   
    11     5     6 1   
    12     5    18 1   
    13     5    20 1   
    14     5    35 1   
    15     6    20 1   
    16     6    38 1   
    17     6    39 1   
    18     7    11 2   
    19     7    31 1   
    20     7    40 1   
    21     8     9 1   
    22     8    31 1   
    23     8    33 2   
    24     9    10 2   
    25     9    32 1   
    26    10    11 1   
    27    10    25 1   
    28    11    12 1   
    29    12    21 ar  
    30    12    27 ar  
    31    13    14 1   
    32    13    27 ar  
    33    13    29 ar  
    34    14    16 ar  
    35    15    41 1   
    36    17    28 1   
    37    17    42 1   
    38    18    21 ar  
    39    18    29 ar  
    40    19    35 1   
    41    19    43 1   
    42    19    44 1   
    43    19    45 1   
    44    20    46 1   
    45    20    47 1   
    46    21    48 1   
    47    22    23 1   
    48    22    51 1   
    49    22    52 1   
    50    22    61 1   
    51    23    24 2   
    52    23    53 1   
    53    24    54 1   
    54    24    55 1   
    55    25    26 2   
    56    25    56 1   
    57    26    32 1   
    58    26    57 1   
    59    28    58 1   
    60    30    35 2   
    61    30    59 1   
    62    31    61 1   
    63    32    60 1   
    64    34    35 2   
    65    49    61 1   
    66    50    61 1   
@<TRIPOS>SUBSTRUCTURE
     1 06M         1 TEMP              0 ****  ****    0 ROOT
