@<TRIPOS>MOLECULE
06P
   54    56     1     0     0
SMALL
abcg2


@<TRIPOS>ATOM
      1 N4           1.5220    -1.7240     0.5640 n8         1 06P      -0.993200
      2 C3           1.9040    -0.3680     0.2430 c3         1 06P       0.100500
      3 C5           0.6870     0.5370     0.3650 c          1 06P       0.626100
      4 O7          -0.1970     0.2990     1.1790 o          1 06P      -0.646100
      5 C2           3.0190     0.2320     1.1380 c3         1 06P      -0.069100
      6 C1           4.2970    -0.5450     1.0240 ca         1 06P      -0.099300
      7 C8           5.1950    -0.2780    -0.0090 ca         1 06P      -0.109500
      8 C12          4.5940    -1.5760     1.9120 ca         1 06P      -0.109500
      9 C9           6.3610    -1.0180    -0.1480 ca         1 06P      -0.102500
     10 C11          5.7590    -2.3210     1.7760 ca         1 06P      -0.102500
     11 C10          6.6460    -2.0440     0.7450 ca         1 06P      -0.099000
     12 N6           0.6630     1.6450    -0.3940 n          1 06P      -0.396800
     13 C13         -0.4080     2.6040    -0.2280 c5         1 06P       0.033700
     14 C14         -1.7220     2.0230    -0.7280 c          1 06P       0.588100
     15 O15         -1.7830     1.2490    -1.6680 o          1 06P      -0.578100
     16 C19          0.0430     3.7900    -1.0930 c5         1 06P      -0.082400
     17 C20          0.8620     3.1350    -2.1990 c5         1 06P      -0.094400
     18 C21          1.5700     1.9870    -1.4880 c5         1 06P       0.108000
     19 N16         -2.8180     2.4560    -0.0780 ns         1 06P      -0.516900
     20 C17         -4.1350     2.0590    -0.4790 c3         1 06P       0.134300
     21 C18         -4.4810     0.6320    -0.1540 ca         1 06P       0.031700
     22 C22         -5.6510     0.0800    -0.6740 ca         1 06P      -0.113500
     23 C23         -5.9960    -1.2100    -0.3700 ca         1 06P      -0.058500
     24 N24         -5.2180    -1.9590     0.4260 na         1 06P       0.057300
     25 C25         -5.6360    -3.3250     0.7540 c3         1 06P       0.013900
     26 C26         -4.0880    -1.4570     0.9390 ca         1 06P      -0.007800
     27 C27         -3.6960    -0.1680     0.6650 ca         1 06P      -0.113500
     28 HN4          2.3220    -2.3350     0.4520 hn         1 06P       0.412500
     29 HN4A         1.2440    -1.7890     1.5360 hn         1 06P       0.412500
     30 H3           2.2670    -0.3680    -0.7880 h1         1 06P       0.079700
     31 H2           2.6680     0.2330     2.1740 hc         1 06P       0.058700
     32 H2A          3.1950     1.2750     0.8600 hc         1 06P       0.058700
     33 H8           4.9870     0.5230    -0.7080 ha         1 06P       0.107500
     34 H12          3.9110    -1.7900     2.7260 ha         1 06P       0.107500
     35 H9           7.0500    -0.7910    -0.9510 ha         1 06P       0.120000
     36 H11          5.9740    -3.1150     2.4800 ha         1 06P       0.120000
     37 H10          7.5560    -2.6200     0.6400 ha         1 06P       0.122000
     38 H13         -0.5060     2.8980     0.8190 h1         1 06P       0.078700
     39 H19         -0.7920     4.3830    -1.4620 hc         1 06P       0.065200
     40 H19A         0.6710     4.4460    -0.4880 hc         1 06P       0.065200
     41 H20          0.2100     2.7480    -2.9820 hc         1 06P       0.070700
     42 H20A         1.5690     3.8200    -2.6640 hc         1 06P       0.070700
     43 H21          2.5430     2.3020    -1.1010 h1         1 06P       0.057700
     44 H21A         1.7300     1.1390    -2.1540 h1         1 06P       0.057700
     45 HN16        -2.7220     3.0670     0.7160 hn         1 06P       0.335500
     46 H17         -4.8550     2.7050     0.0260 h1         1 06P       0.089200
     47 H17A        -4.2790     2.2170    -1.5510 h1         1 06P       0.089200
     48 H22         -6.2990     0.6510    -1.3250 ha         1 06P       0.185500
     49 H23         -6.8930    -1.6760    -0.7500 h4         1 06P       0.183000
     50 H25         -5.9650    -3.8260    -0.1510 h1         1 06P       0.093700
     51 H25A        -4.7980    -3.8650     1.1790 h1         1 06P       0.093700
     52 H25B        -6.4500    -3.2880     1.4730 h1         1 06P       0.093700
     53 H26         -3.5090    -2.1120     1.5710 h4         1 06P       0.183000
     54 H27         -2.7720     0.1890     1.0960 ha         1 06P       0.185500
@<TRIPOS>BOND
     1     1     2 1   
     2     1    28 1   
     3     1    29 1   
     4     2     3 1   
     5     2     5 1   
     6     2    30 1   
     7     3     4 2   
     8     3    12 1   
     9     5     6 1   
    10     5    31 1   
    11     5    32 1   
    12     6     7 ar  
    13     6     8 ar  
    14     7     9 ar  
    15     7    33 1   
    16     8    10 ar  
    17     8    34 1   
    18     9    11 ar  
    19     9    35 1   
    20    10    11 ar  
    21    10    36 1   
    22    11    37 1   
    23    12    13 1   
    24    12    18 1   
    25    13    14 1   
    26    13    16 1   
    27    13    38 1   
    28    14    15 2   
    29    14    19 1   
    30    16    17 1   
    31    16    39 1   
    32    16    40 1   
    33    17    18 1   
    34    17    41 1   
    35    17    42 1   
    36    18    43 1   
    37    18    44 1   
    38    19    20 1   
    39    19    45 1   
    40    20    21 1   
    41    20    46 1   
    42    20    47 1   
    43    21    22 ar  
    44    21    27 ar  
    45    22    23 ar  
    46    22    48 1   
    47    23    24 1   
    48    23    49 1   
    49    24    25 1   
    50    24    26 2   
    51    25    50 1   
    52    25    51 1   
    53    25    52 1   
    54    26    27 ar  
    55    26    53 1   
    56    27    54 1   
@<TRIPOS>SUBSTRUCTURE
     1 06P         1 TEMP              0 ****  ****    0 ROOT
