@<TRIPOS>MOLECULE
06P
   54    56     1     0     0
SMALL
No Charge or Current Charge


@<TRIPOS>ATOM
      1 N4           2.2290    -2.1400     0.1290 n8         1 06P      -0.993200
      2 C3           2.2680    -0.6350     0.0870 c3         1 06P       0.100500
      3 C5           0.8880     0.1080     0.3080 c          1 06P       0.626100
      4 O7          -0.0230    -0.4200     0.9440 o          1 06P      -0.646100
      5 C2           3.3420    -0.1140     1.0780 c3         1 06P      -0.069100
      6 C1           4.7370    -0.6710     0.8080 ca         1 06P      -0.099300
      7 C8           5.4540    -0.2590    -0.3330 ca         1 06P      -0.109500
      8 C12          5.3240    -1.5950     1.6960 ca         1 06P      -0.109500
      9 C9           6.7400    -0.7680    -0.5860 ca         1 06P      -0.102500
     10 C11          6.6100    -2.1040     1.4420 ca         1 06P      -0.102500
     11 C10          7.3180    -1.6910     0.3010 ca         1 06P      -0.099000
     12 N6           0.7120     1.4100    -0.2170 n          1 06P      -0.396800
     13 C13         -0.5450     2.1830    -0.0100 c5         1 06P       0.033700
     14 C14         -1.7460     1.6970    -0.8850 c          1 06P       0.588100
     15 O15         -1.7120     0.9340    -1.8430 o          1 06P      -0.578100
     16 C19         -0.0940     3.6050    -0.4630 c5         1 06P      -0.082400
     17 C20          0.8580     3.2860    -1.6430 c5         1 06P      -0.094400
     18 C21          1.6970     2.1120    -1.0760 c5         1 06P       0.108000
     19 N16         -2.9180     2.2430    -0.4040 ns         1 06P      -0.516900
     20 C17         -4.2460     1.9760    -0.9690 c3         1 06P       0.134300
     21 C18         -4.8660     0.7110    -0.3870 ca         1 06P       0.031700
     22 C22         -4.6800    -0.5340    -1.0190 ca         1 06P      -0.113500
     23 C23         -5.2500    -1.6980    -0.4700 ca         1 06P      -0.058500
     24 N24         -6.0100    -1.6410     0.7010 na         1 06P       0.057300
     25 C25         -6.5930    -2.8650     1.2740 c3         1 06P       0.013900
     26 C26         -6.1840    -0.4080     1.3360 ca         1 06P      -0.007800
     27 C27         -5.6210     0.7670     0.8010 ca         1 06P      -0.113500
     28 HN4          3.1950    -2.4840     0.2000 hn         1 06P       0.412500
     29 HN4A         1.8020    -2.4330     1.0160 hn         1 06P       0.412500
     30 H3           2.6040    -0.3690    -0.9230 h1         1 06P       0.079700
     31 H2           3.0250    -0.3500     2.1020 hc         1 06P       0.058700
     32 H2A          3.3800     0.9810     1.0310 hc         1 06P       0.058700
     33 H8           5.0160     0.4580    -1.0240 ha         1 06P       0.107500
     34 H12          4.7860    -1.9200     2.5840 ha         1 06P       0.107500
     35 H9           7.2880    -0.4460    -1.4690 ha         1 06P       0.120000
     36 H11          7.0580    -2.8170     2.1310 ha         1 06P       0.120000
     37 H10          8.3130    -2.0850     0.1050 ha         1 06P       0.122000
     38 H13         -0.8540     2.1750     1.0440 h1         1 06P       0.078700
     39 H19         -0.9280     4.2540    -0.7530 hc         1 06P       0.065200
     40 H19A         0.4450     4.1170     0.3440 hc         1 06P       0.065200
     41 H20          0.3000     2.9770    -2.5340 hc         1 06P       0.070700
     42 H20A         1.4810     4.1410    -1.9310 hc         1 06P       0.070700
     43 H21          2.5400     2.4820    -0.4790 h1         1 06P       0.057700
     44 H21A         2.0880     1.4790    -1.8830 h1         1 06P       0.057700
     45 HN16        -2.8470     2.8600     0.3980 hn         1 06P       0.335500
     46 H17         -4.9000     2.8330    -0.7620 h1         1 06P       0.089200
     47 H17A        -4.1690     1.8830    -2.0610 h1         1 06P       0.089200
     48 H22         -4.0890    -0.6000    -1.9310 ha         1 06P       0.185500
     49 H23         -5.1110    -2.6730    -0.9410 h4         1 06P       0.183000
     50 H25         -6.8160    -3.5850     0.4770 h1         1 06P       0.093700
     51 H25A        -5.8820    -3.3150     1.9780 h1         1 06P       0.093700
     52 H25B        -7.5240    -2.6280     1.8030 h1         1 06P       0.093700
     53 H26         -6.7680    -0.3870     2.2580 h4         1 06P       0.183000
     54 H27         -5.7700     1.7160     1.3130 ha         1 06P       0.185500
@<TRIPOS>BOND
     1     1     2 1   
     2     1    28 1   
     3     1    29 1   
     4     2     3 1   
     5     2     5 1   
     6     2    30 1   
     7     3     4 2   
     8     3    12 1   
     9     5     6 1   
    10     5    31 1   
    11     5    32 1   
    12     6     7 ar  
    13     6     8 ar  
    14     7     9 ar  
    15     7    33 1   
    16     8    10 ar  
    17     8    34 1   
    18     9    11 ar  
    19     9    35 1   
    20    10    11 ar  
    21    10    36 1   
    22    11    37 1   
    23    12    13 1   
    24    12    18 1   
    25    13    14 1   
    26    13    16 1   
    27    13    38 1   
    28    14    15 2   
    29    14    19 1   
    30    16    17 1   
    31    16    39 1   
    32    16    40 1   
    33    17    18 1   
    34    17    41 1   
    35    17    42 1   
    36    18    43 1   
    37    18    44 1   
    38    19    20 1   
    39    19    45 1   
    40    20    21 1   
    41    20    46 1   
    42    20    47 1   
    43    21    22 ar  
    44    21    27 ar  
    45    22    23 ar  
    46    22    48 1   
    47    23    24 1   
    48    23    49 1   
    49    24    25 1   
    50    24    26 2   
    51    25    50 1   
    52    25    51 1   
    53    25    52 1   
    54    26    27 ar  
    55    26    53 1   
    56    27    54 1   
@<TRIPOS>SUBSTRUCTURE
     1 06P         1 TEMP              0 ****  ****    0 ROOT
