@<TRIPOS>MOLECULE
06Q
   80    84     1     0     0
SMALL
No Charge or Current Charge


@<TRIPOS>ATOM
      1 C02          8.1990    11.4180    23.9300 c          1 06Q       0.645300
      2 C04          7.8020    13.6390    22.7650 c3         1 06Q       0.040700
      3 C05          7.1260    14.6470    23.7330 c3         1 06Q      -0.045100
      4 C06          6.2380    13.9750    24.7750 ca         1 06Q      -0.091300
      5 C07          4.9020    13.6510    24.4610 ca         1 06Q      -0.078500
      6 C08          4.0850    13.0190    25.4150 ca         1 06Q      -0.144500
      7 C09          4.6000    12.7080    26.6820 ca         1 06Q       0.165000
      8 C11          5.9280    13.0270    27.0040 ca         1 06Q      -0.144500
      9 C12          6.7460    13.6600    26.0520 ca         1 06Q      -0.078500
     10 C13          8.6700    14.3560    21.6920 c          1 06Q       0.589100
     11 C15          8.6040    16.0440    19.8130 c3         1 06Q       0.116700
     12 C16          7.9300    15.7840    18.4370 c3         1 06Q      -0.076400
     13 C17          7.9240    14.2960    17.9430 c6         1 06Q      -0.133700
     14 C18          9.3680    13.7240    17.8280 c6         1 06Q      -0.076400
     15 C19          9.4030    12.4930    16.9050 c6         1 06Q      -0.092400
     16 C20          8.9320    12.8800    15.4900 c6         1 06Q       0.115000
     17 C22          7.0900    14.1870    16.6360 c          1 06Q       0.563000
     18 C24          8.5980    17.5500    20.2110 c3         1 06Q       0.068300
     19 C26          8.9700    17.7660    21.7110 c          1 06Q       0.568100
     20 C28         10.9050    18.0230    23.3030 c3         1 06Q       0.154300
     21 C29         10.8140    16.8090    24.2190 ca         1 06Q      -0.111300
     22 C30         11.5340    15.6360    23.9190 ca         1 06Q      -0.092500
     23 C31         11.4620    14.5200    24.7710 ca         1 06Q      -0.115000
     24 C32         10.6730    14.5720    25.9330 ca         1 06Q      -0.123000
     25 C33          9.9570    15.7410    26.2410 ca         1 06Q      -0.115000
     26 C34         10.0240    16.8540    25.3850 ca         1 06Q      -0.092500
     27 C37          9.2130    10.7150    24.7560 cc         1 06Q      -0.047100
     28 C38          9.0770     9.4630    25.3270 cd         1 06Q      -0.144200
     29 C39         10.2810     9.1890    26.0440 ca         1 06Q      -0.126800
     30 C40         10.6920     8.0880    26.8050 ca         1 06Q      -0.049000
     31 C41         11.9750     8.1510    27.3910 ca         1 06Q      -0.134000
     32 C42         12.7960     9.2920    27.2050 ca         1 06Q      -0.081000
     33 C43         12.3410    10.3820    26.4290 ca         1 06Q      -0.111000
     34 C44         11.0660    10.2960    25.8560 ca         1 06Q       0.077100
     35 F10          3.8150    12.0990    27.5970 f          1 06Q      -0.185000
     36 N03          8.6200    12.6590    23.5120 ns         1 06Q      -0.468900
     37 N14          7.9820    15.2090    20.8510 ns         1 06Q      -0.504900
     38 N21          7.6940    13.6720    15.5130 ns         1 06Q      -0.507900
     39 N27         10.3200    17.7790    21.9840 ns         1 06Q      -0.492900
     40 O01          7.1030    10.9550    23.6390 o          1 06Q      -0.597100
     41 O23          5.9200    14.5340    16.5860 o          1 06Q      -0.590000
     42 O25          9.4600    18.3040    19.3130 oh         1 06Q      -0.661000
     43 O36          9.8760    14.1820    21.5830 o          1 06Q      -0.605100
     44 O45         10.4630    11.2600    25.0730 os         1 06Q      -0.197200
     45 H1           7.0170    13.1020    22.2180 h1         1 06Q       0.088700
     46 H2           7.9050    15.2400    24.2270 hc         1 06Q       0.077200
     47 H3           6.5290    15.3670    23.1600 hc         1 06Q       0.077200
     48 H4           4.4990    13.8840    23.4780 ha         1 06Q       0.116000
     49 H5           3.0550    12.7680    25.1720 ha         1 06Q       0.132500
     50 H6           6.3220    12.7810    27.9870 ha         1 06Q       0.132500
     51 H7           7.7760    13.8960    26.3040 ha         1 06Q       0.116000
     52 H8           9.6580    15.7500    19.7200 h1         1 06Q       0.094700
     53 H9           8.4250    16.4070    17.6820 hc         1 06Q       0.066200
     54 H10          6.8990    16.1530    18.4960 hc         1 06Q       0.066200
     55 H11          7.3580    13.7230    18.6890 hc         1 06Q       0.081700
     56 H12          9.7530    13.4590    18.8220 hc         1 06Q       0.057200
     57 H13         10.0470    14.4890    17.4250 hc         1 06Q       0.057200
     58 H14          8.7540    11.7040    17.3120 hc         1 06Q       0.058700
     59 H15         10.4180    12.0750    16.8610 hc         1 06Q       0.058700
     60 H16          8.7700    11.9760    14.8850 h1         1 06Q       0.039200
     61 H17          9.7090    13.4810    14.9960 h1         1 06Q       0.039200
     62 H18          7.5650    17.9090    20.1130 h1         1 06Q       0.069700
     63 H19         11.9600    18.2960    23.1710 h1         1 06Q       0.060200
     64 H20         10.3980    18.8820    23.7630 h1         1 06Q       0.060200
     65 H21         12.1480    15.5870    23.0220 ha         1 06Q       0.121000
     66 H22         12.0220    13.6180    24.5330 ha         1 06Q       0.119500
     67 H23         10.6210    13.7100    26.5950 ha         1 06Q       0.113000
     68 H24          9.3490    15.7850    27.1420 ha         1 06Q       0.119500
     69 H25          9.4630    17.7530    25.6310 ha         1 06Q       0.121000
     70 H26          8.2040     8.8180    25.2440 ha         1 06Q       0.229000
     71 H27         10.0500     7.2200    26.9390 ha         1 06Q       0.123000
     72 H28         12.3350     7.3180    27.9910 ha         1 06Q       0.118000
     73 H29         13.7820     9.3290    27.6620 ha         1 06Q       0.118000
     74 H30         12.9610    11.2630    26.2790 ha         1 06Q       0.130000
     75 H31          9.5620    12.9220    23.7790 hn         1 06Q       0.336500
     76 H32          6.9800    15.2800    20.9880 hn         1 06Q       0.325500
     77 H33          7.1190    13.6670    14.6790 hn         1 06Q       0.315500
     78 H34         10.9390    17.6340    21.1940 hn         1 06Q       0.333500
     79 H35          9.3000    19.2620    19.4760 ho         1 06Q       0.455000
     80 O35          8.1320    17.9810    22.5770 o          1 06Q      -0.613100
@<TRIPOS>BOND
     1     1    27 1   
     2     1    36 1   
     3     1    40 2   
     4     2     3 1   
     5     2    10 1   
     6     2    36 1   
     7     2    45 1   
     8     3     4 1   
     9     3    46 1   
    10     3    47 1   
    11     4     5 ar  
    12     4     9 ar  
    13     5     6 ar  
    14     5    48 1   
    15     6     7 ar  
    16     6    49 1   
    17     7     8 ar  
    18     7    35 1   
    19     8     9 ar  
    20     8    50 1   
    21     9    51 1   
    22    10    37 1   
    23    10    43 2   
    24    11    12 1   
    25    11    18 1   
    26    11    37 1   
    27    11    52 1   
    28    12    13 1   
    29    12    53 1   
    30    12    54 1   
    31    13    14 1   
    32    13    17 1   
    33    13    55 1   
    34    14    15 1   
    35    14    56 1   
    36    14    57 1   
    37    15    16 1   
    38    15    58 1   
    39    15    59 1   
    40    16    38 1   
    41    16    60 1   
    42    16    61 1   
    43    17    38 1   
    44    17    41 2   
    45    18    19 1   
    46    18    42 1   
    47    18    62 1   
    48    19    39 1   
    49    19    80 2   
    50    20    21 1   
    51    20    39 1   
    52    20    63 1   
    53    20    64 1   
    54    21    22 ar  
    55    21    26 ar  
    56    22    23 ar  
    57    22    65 1   
    58    23    24 ar  
    59    23    66 1   
    60    24    25 ar  
    61    24    67 1   
    62    25    26 ar  
    63    25    68 1   
    64    26    69 1   
    65    27    28 2   
    66    27    44 1   
    67    28    29 1   
    68    28    70 1   
    69    29    30 ar  
    70    29    34 ar  
    71    30    31 ar  
    72    30    71 1   
    73    31    32 ar  
    74    31    72 1   
    75    32    33 ar  
    76    32    73 1   
    77    33    34 ar  
    78    33    74 1   
    79    34    44 1   
    80    36    75 1   
    81    37    76 1   
    82    38    77 1   
    83    39    78 1   
    84    42    79 1   
@<TRIPOS>SUBSTRUCTURE
     1 06Q         1 TEMP              0 ****  ****    0 ROOT
