@<TRIPOS>MOLECULE
06Q
   80    84     1     0     0
SMALL
abcg2


@<TRIPOS>ATOM
      1 C02          8.5670    11.4650    23.1560 c          1 06Q       0.645300
      2 C04          7.8190    13.7890    22.9760 c3         1 06Q       0.040700
      3 C05          7.4590    14.8910    23.9920 c3         1 06Q      -0.045100
      4 C06          6.4930    14.3990    25.0380 ca         1 06Q      -0.091300
      5 C07          5.1330    14.2820    24.7430 ca         1 06Q      -0.078500
      6 C08          4.2320    13.7890    25.6800 ca         1 06Q      -0.144500
      7 C09          4.7160    13.4140    26.9200 ca         1 06Q       0.165000
      8 C11          6.0510    13.5200    27.2580 ca         1 06Q      -0.144500
      9 C12          6.9350    14.0150    26.3040 ca         1 06Q      -0.078500
     10 C13          8.6640    14.3460    21.8130 c          1 06Q       0.589100
     11 C15          8.6130    15.9180    19.9130 c3         1 06Q       0.116700
     12 C16          7.9810    15.5270    18.5780 c3         1 06Q      -0.076400
     13 C17          8.1330    14.0420    18.2400 c6         1 06Q      -0.133700
     14 C18          9.5920    13.6120    18.0620 c6         1 06Q      -0.076400
     15 C19          9.6710    12.1990    17.5010 c6         1 06Q      -0.092400
     16 C20          9.0250    12.1580    16.1290 c6         1 06Q       0.115000
     17 C22          7.2430    13.6850    17.0500 c          1 06Q       0.563000
     18 C24          8.5470    17.4480    20.1130 c3         1 06Q       0.068300
     19 C26          8.7440    17.8390    21.5810 c          1 06Q       0.568100
     20 C28         10.3790    18.3640    23.3300 c3         1 06Q       0.154300
     21 C29         10.4320    17.1800    24.2730 ca         1 06Q      -0.111300
     22 C30         11.0290    15.9820    23.8860 ca         1 06Q      -0.092500
     23 C31         11.0950    14.9080    24.7650 ca         1 06Q      -0.115000
     24 C32         10.5680    15.0200    26.0480 ca         1 06Q      -0.123000
     25 C33          9.9700    16.2130    26.4430 ca         1 06Q      -0.115000
     26 C34          9.9010    17.2840    25.5580 ca         1 06Q      -0.092500
     27 C37          9.3960    10.5260    23.9330 cc         1 06Q      -0.047100
     28 C38          9.6330     9.2020    23.7620 cd         1 06Q      -0.144200
     29 C39         10.5090     8.8030    24.8280 ca         1 06Q      -0.126800
     30 C40         11.1110     7.6040    25.2270 ca         1 06Q      -0.049000
     31 C41         11.9280     7.6220    26.3470 ca         1 06Q      -0.134000
     32 C42         12.1510     8.8060    27.0710 ca         1 06Q      -0.081000
     33 C43         11.5640    10.0080    26.6970 ca         1 06Q      -0.111000
     34 C44         10.7510     9.9670    25.5770 ca         1 06Q       0.077100
     35 F10          3.8430    12.9270    27.8420 f          1 06Q      -0.185000
     36 N03          8.5130    12.7180    23.6460 ns         1 06Q      -0.468900
     37 N14          7.9960    15.2000    21.0120 ns         1 06Q      -0.504900
     38 N21          7.7070    12.7910    16.1570 ns         1 06Q      -0.507900
     39 N27         10.0130    18.0180    21.9660 ns         1 06Q      -0.492900
     40 O01          7.9720    11.0980    22.1400 o          1 06Q      -0.597100
     41 O23          6.1120    14.1700    16.9320 o          1 06Q      -0.590000
     42 O25          9.5490    17.9900    19.2590 oh         1 06Q      -0.661000
     43 O36          9.8460    14.0570    21.6670 o          1 06Q      -0.605100
     44 O45         10.0710    11.0210    25.0340 os         1 06Q      -0.197200
     45 H1           6.9010    13.3820    22.5490 h1         1 06Q       0.088700
     46 H2           8.3760    15.2450    24.4610 hc         1 06Q       0.077200
     47 H3           7.0350    15.7340    23.4510 hc         1 06Q       0.077200
     48 H4           4.7710    14.5780    23.7660 ha         1 06Q       0.116000
     49 H5           3.1770    13.6980    25.4570 ha         1 06Q       0.132500
     50 H6           6.3890    13.2210    28.2410 ha         1 06Q       0.132500
     51 H7           7.9840    14.1070    26.5520 ha         1 06Q       0.116000
     52 H8           9.6680    15.6490    19.9340 h1         1 06Q       0.094700
     53 H9           8.4380    16.1310    17.7910 hc         1 06Q       0.066200
     54 H10          6.9200    15.7810    18.6090 hc         1 06Q       0.066200
     55 H11          7.7080    13.4610    19.0690 hc         1 06Q       0.081700
     56 H12         10.1050    13.6720    19.0220 hc         1 06Q       0.057200
     57 H13         10.0960    14.3060    17.3810 hc         1 06Q       0.057200
     58 H14          9.1580    11.5060    18.1750 hc         1 06Q       0.058700
     59 H15         10.7070    11.8680    17.4160 hc         1 06Q       0.058700
     60 H16          8.8960    11.1310    15.7840 h1         1 06Q       0.039200
     61 H17          9.6610    12.6730    15.4020 h1         1 06Q       0.039200
     62 H18          7.5560    17.8150    19.8330 h1         1 06Q       0.069700
     63 H19         11.3570    18.8460    23.2860 h1         1 06Q       0.060200
     64 H20          9.6670    19.0970    23.7090 h1         1 06Q       0.060200
     65 H21         11.4230    15.8790    22.8840 ha         1 06Q       0.121000
     66 H22         11.5470    13.9780    24.4440 ha         1 06Q       0.119500
     67 H23         10.6100    14.1800    26.7300 ha         1 06Q       0.113000
     68 H24          9.5430    16.3050    27.4340 ha         1 06Q       0.119500
     69 H25          9.4180    18.2060    25.8620 ha         1 06Q       0.121000
     70 H26          9.2240     8.5860    22.9790 ha         1 06Q       0.229000
     71 H27         10.9420     6.6890    24.6740 ha         1 06Q       0.123000
     72 H28         12.4050     6.7080    26.6750 ha         1 06Q       0.118000
     73 H29         12.7960     8.7810    27.9400 ha         1 06Q       0.118000
     74 H30         11.7290    10.9240    27.2470 ha         1 06Q       0.130000
     75 H31          9.1230    12.9540    24.4140 hn         1 06Q       0.336500
     76 H32          7.0180    15.3670    21.1930 hn         1 06Q       0.325500
     77 H33          7.0800    12.5920    15.3910 hn         1 06Q       0.315500
     78 H34         10.7290    17.9520    21.2600 hn         1 06Q       0.333500
     79 H35          9.3720    18.9300    19.1280 ho         1 06Q       0.455000
     80 O35          7.7780    17.9470    22.3360 o          1 06Q      -0.613100
@<TRIPOS>BOND
     1     1    27 1   
     2     1    36 1   
     3     1    40 2   
     4     2     3 1   
     5     2    10 1   
     6     2    36 1   
     7     2    45 1   
     8     3     4 1   
     9     3    46 1   
    10     3    47 1   
    11     4     5 ar  
    12     4     9 ar  
    13     5     6 ar  
    14     5    48 1   
    15     6     7 ar  
    16     6    49 1   
    17     7     8 ar  
    18     7    35 1   
    19     8     9 ar  
    20     8    50 1   
    21     9    51 1   
    22    10    37 1   
    23    10    43 2   
    24    11    12 1   
    25    11    18 1   
    26    11    37 1   
    27    11    52 1   
    28    12    13 1   
    29    12    53 1   
    30    12    54 1   
    31    13    14 1   
    32    13    17 1   
    33    13    55 1   
    34    14    15 1   
    35    14    56 1   
    36    14    57 1   
    37    15    16 1   
    38    15    58 1   
    39    15    59 1   
    40    16    38 1   
    41    16    60 1   
    42    16    61 1   
    43    17    38 1   
    44    17    41 2   
    45    18    19 1   
    46    18    42 1   
    47    18    62 1   
    48    19    39 1   
    49    19    80 2   
    50    20    21 1   
    51    20    39 1   
    52    20    63 1   
    53    20    64 1   
    54    21    22 ar  
    55    21    26 ar  
    56    22    23 ar  
    57    22    65 1   
    58    23    24 ar  
    59    23    66 1   
    60    24    25 ar  
    61    24    67 1   
    62    25    26 ar  
    63    25    68 1   
    64    26    69 1   
    65    27    28 2   
    66    27    44 1   
    67    28    29 1   
    68    28    70 1   
    69    29    30 ar  
    70    29    34 ar  
    71    30    31 ar  
    72    30    71 1   
    73    31    32 ar  
    74    31    72 1   
    75    32    33 ar  
    76    32    73 1   
    77    33    34 ar  
    78    33    74 1   
    79    34    44 1   
    80    36    75 1   
    81    37    76 1   
    82    38    77 1   
    83    39    78 1   
    84    42    79 1   
@<TRIPOS>SUBSTRUCTURE
     1 06Q         1 TEMP              0 ****  ****    0 ROOT
