@<TRIPOS>MOLECULE
06R
   30    32     1     0     0
SMALL
No Charge or Current Charge


@<TRIPOS>ATOM
      1 FAA         -5.2680     0.4920    -1.2680 f          1 06R      -0.110667
      2 CAB         -4.8270     0.0900    -0.0550 c3         1 06R       0.357300
      3 FAC         -5.3370     0.9510     0.8560 f          1 06R      -0.110667
      4 FAD         -5.3960    -1.1130     0.1930 f          1 06R      -0.110667
      5 CAE         -3.2960     0.0320    -0.0100 ca         1 06R      -0.178300
      6 CAF         -2.5440     1.1630     0.3690 ca         1 06R      -0.067500
      7 CAG         -1.1400     1.1120     0.3990 ca         1 06R      -0.082000
      8 CAH         -0.4460    -0.0740     0.0650 ca         1 06R      -0.116900
      9 CAI         -1.2050    -1.1950    -0.3500 ca         1 06R      -0.082000
     10 CAJ         -2.6100    -1.1430    -0.3810 ca         1 06R      -0.067500
     11 CAK          1.0280    -0.1020     0.0640 cc         1 06R       0.556500
     12 NAL          1.7220     1.0240    -0.1230 nd         1 06R      -0.631100
     13 CAM          3.1190     0.8720    -0.0930 ca         1 06R       0.188400
     14 CAN          3.9030     2.0230    -0.2970 ca         1 06R      -0.103000
     15 CAO          5.3060     1.9540    -0.2840 ca         1 06R      -0.073000
     16 CAP          5.9430     0.7230    -0.0650 ca         1 06R      -0.130000
     17 CAQ          5.1750    -0.4340     0.1410 ca         1 06R      -0.040000
     18 CAR          3.7660    -0.3590     0.1270 ca         1 06R      -0.201600
     19 CAS          2.9320    -1.5620     0.3480 c          1 06R       0.579600
     20 OAT          3.3810    -2.6780     0.5610 o          1 06R      -0.533000
     21 NAU          1.6040    -1.3240     0.3000 ns         1 06R      -0.427400
     22 HAF         -3.0430     2.0920     0.6380 ha         1 06R       0.136000
     23 HAG         -0.5910     2.0030     0.6960 ha         1 06R       0.135000
     24 HAI         -0.7180    -2.1130    -0.6700 ha         1 06R       0.135000
     25 HAJ         -3.1630    -2.0220    -0.7070 ha         1 06R       0.136000
     26 HAN          3.4160     2.9800    -0.4670 ha         1 06R       0.133000
     27 HAO          5.8970     2.8530    -0.4430 ha         1 06R       0.119000
     28 HAP          7.0290     0.6650    -0.0540 ha         1 06R       0.121000
     29 HAQ          5.6760    -1.3860     0.3120 ha         1 06R       0.137000
     30 HNAU         1.0080    -2.1180     0.4750 hn         1 06R       0.330500
@<TRIPOS>BOND
     1     1     2 1   
     2     2     3 1   
     3     2     4 1   
     4     2     5 1   
     5     5     6 ar  
     6     5    10 ar  
     7     6     7 ar  
     8     6    22 1   
     9     7     8 ar  
    10     7    23 1   
    11     8     9 ar  
    12     8    11 1   
    13     9    10 ar  
    14     9    24 1   
    15    10    25 1   
    16    11    12 2   
    17    11    21 1   
    18    12    13 1   
    19    13    14 ar  
    20    13    18 ar  
    21    14    15 ar  
    22    14    26 1   
    23    15    16 ar  
    24    15    27 1   
    25    16    17 ar  
    26    16    28 1   
    27    17    18 ar  
    28    17    29 1   
    29    18    19 1   
    30    19    20 2   
    31    19    21 1   
    32    21    30 1   
@<TRIPOS>SUBSTRUCTURE
     1 06R         1 TEMP              0 ****  ****    0 ROOT
