@<TRIPOS>MOLECULE
06R
   30    32     1     0     0
SMALL
bcc


@<TRIPOS>ATOM
      1 FAA         -5.1870     0.2150    -1.2650 f          1 06R      -0.231967
      2 CAB         -4.7290     0.1810    -0.0040 c3         1 06R       0.721200
      3 FAC         -5.1660     1.2920     0.5970 f          1 06R      -0.231967
      4 FAD         -5.3260    -0.8540     0.5950 f          1 06R      -0.231967
      5 CAE         -3.2360     0.0700     0.0300 ca         1 06R      -0.178300
      6 CAF         -2.4500     1.2160     0.0370 ca         1 06R      -0.085500
      7 CAG         -1.0720     1.1080     0.0270 ca         1 06R      -0.100000
      8 CAH         -0.4530    -0.1420     0.0090 ca         1 06R      -0.116900
      9 CAI         -1.2520    -1.2830    -0.0020 ca         1 06R      -0.100000
     10 CAJ         -2.6330    -1.1800     0.0070 ca         1 06R      -0.085500
     11 CAK          1.0260    -0.1950     0.0050 cc         1 06R       0.556500
     12 NAL          1.6910     0.9050     0.0220 nd         1 06R      -0.631100
     13 CAM          3.0610     0.8420     0.0210 ca         1 06R       0.188400
     14 CAN          3.7890     2.0390     0.0370 ca         1 06R      -0.121000
     15 CAO          5.1660     2.0100     0.0370 ca         1 06R      -0.091000
     16 CAP          5.8550     0.7920     0.0200 ca         1 06R      -0.148000
     17 CAQ          5.1540    -0.3940     0.0030 ca         1 06R      -0.058000
     18 CAR          3.7570    -0.3770     0.0030 ca         1 06R      -0.201600
     19 CAS          2.9950    -1.6170    -0.0150 c          1 06R       0.722100
     20 OAT          3.4640    -2.7400    -0.0310 o          1 06R      -0.608500
     21 NAU          1.6300    -1.4180    -0.0130 ns         1 06R      -0.494400
     22 HAF         -2.8970     2.2010     0.0530 ha         1 06R       0.154000
     23 HAG         -0.4650     2.0020     0.0360 ha         1 06R       0.153000
     24 HAI         -0.8360    -2.2820    -0.0170 ha         1 06R       0.153000
     25 HAJ         -3.2220    -2.0860    -0.0000 ha         1 06R       0.154000
     26 HAN          3.2500     2.9780     0.0510 ha         1 06R       0.151000
     27 HAO          5.7220     2.9380     0.0500 ha         1 06R       0.137000
     28 HAP          6.9370     0.7830     0.0200 ha         1 06R       0.139000
     29 HAQ          5.6790    -1.3410    -0.0110 ha         1 06R       0.155000
     30 HNAU         1.0700    -2.2580    -0.0250 hn         1 06R       0.330500
@<TRIPOS>BOND
     1     1     2 1   
     2     2     3 1   
     3     2     4 1   
     4     2     5 1   
     5     5     6 ar  
     6     5    10 ar  
     7     6     7 ar  
     8     6    22 1   
     9     7     8 ar  
    10     7    23 1   
    11     8     9 ar  
    12     8    11 1   
    13     9    10 ar  
    14     9    24 1   
    15    10    25 1   
    16    11    12 2   
    17    11    21 1   
    18    12    13 1   
    19    13    14 ar  
    20    13    18 ar  
    21    14    15 ar  
    22    14    26 1   
    23    15    16 ar  
    24    15    27 1   
    25    16    17 ar  
    26    16    28 1   
    27    17    18 ar  
    28    17    29 1   
    29    18    19 1   
    30    19    20 2   
    31    19    21 1   
    32    21    30 1   
@<TRIPOS>SUBSTRUCTURE
     1 06R         1 TEMP              0 ****  ****    0 ROOT
