@<TRIPOS>MOLECULE
06S
   72    76     1     0     0
SMALL
abcg2


@<TRIPOS>ATOM
      1 O13         -7.7630    -5.0610    -0.3490 o          1 06S      -0.569100
      2 C12         -7.4870    -3.9010    -0.6380 c          1 06S       0.668000
      3 C10         -6.2040    -3.2880    -0.3710 cc         1 06S       0.106500
      4 N4          -5.0640    -3.7810     0.2080 nc         1 06S      -0.614000
      5 C14         -4.2150    -2.8000     0.1890 cd         1 06S       0.418400
      6 N3          -8.4040    -3.0860    -1.2580 nc         1 06S      -0.819100
      7 C13         -8.1480    -1.8430    -1.5700 cd         1 06S       0.901100
      8 N5          -9.1050    -1.0870    -2.1320 nv         1 06S      -1.054200
      9 N2          -6.9550    -1.2250    -1.3370 na         1 06S      -0.920200
     10 C11         -6.0060    -1.9830    -0.7320 cd         1 06S       0.210000
     11 N1          -4.7420    -1.6570    -0.3730 na         1 06S      -0.191500
     12 C5          -4.0690    -0.4040    -0.6400 c5         1 06S       0.299300
     13 C6          -4.8660     0.8340    -0.2110 c5         1 06S       0.107300
     14 O8          -5.6630     1.2700    -1.2680 oh         1 06S      -0.790000
     15 C7          -3.7410     1.8130     0.2340 c5         1 06S       0.162300
     16 O9          -3.5960     2.9540    -0.5680 os         1 06S      -0.545400
     17 P2          -4.6240     4.2260    -0.3880 p5         1 06S       1.224800
     18 S2          -4.1590     4.9500     1.5580 sh         1 06S      -0.627200
     19 O11         -6.0340     3.6880    -0.3590 o          1 06S      -0.737000
     20 O12         -4.1620     5.2620    -1.3480 o          1 06S      -0.737000
     21 O6          -2.9000    -0.3780     0.1130 os         1 06S      -0.443000
     22 C8          -2.4630     0.9690     0.1230 c5         1 06S       0.156300
     23 C9          -1.5210     1.1980     1.2720 c3         1 06S       0.204600
     24 O7          -0.3180     0.4650     1.0240 os         1 06S      -0.557400
     25 P1           1.0110     0.8390     1.8180 p5         1 06S       1.128200
     26 O10          0.9290     0.9100     3.2880 o          1 06S      -0.495000
     27 S1           1.6800     2.6850     1.1280 sh         1 06S      -0.547200
     28 O3           1.9350    -0.2830     1.1650 os         1 06S      -0.544400
     29 C2           3.3540    -0.2380     1.3280 c5         1 06S       0.183300
     30 C3           4.0140    -0.0210    -0.0350 c5         1 06S       0.122300
     31 C4           5.2310     0.8770     0.0460 c3         1 06S       0.209600
     32 O1           5.8110     1.0100    -1.2330 os         1 06S      -0.566400
     33 P            5.8450     2.4740    -1.9740 p5         1 06S       1.213800
     34 S            3.7590     2.9030    -2.2710 sh         1 06S      -0.669200
     35 O4           6.4980     2.2310    -3.2910 o          1 06S      -0.738500
     36 O5           6.2730     3.5330    -1.0130 o          1 06S      -0.738500
     37 O            4.3740    -1.3140    -0.5230 os         1 06S      -0.432000
     38 C1           3.8480    -1.6190     1.7280 c5         1 06S       0.124300
     39 O2           3.0070    -2.2450     2.6360 oh         1 06S      -0.674000
     40 C            3.9340    -2.3080     0.3610 c5         1 06S       0.293700
     41 N            4.8700    -3.4160     0.3120 n          1 06S      -0.312000
     42 C18          4.4080    -4.6850     0.0080 c          1 06S       0.623000
     43 O15          3.2400    -4.9390    -0.1900 o          1 06S      -0.543000
     44 C16          6.2030    -3.1780     0.5060 cc         1 06S       0.024600
     45 C15          7.1390    -4.1360     0.4430 cd         1 06S      -0.402200
     46 C17          6.7480    -5.4930     0.1480 c          1 06S       0.595200
     47 N6           5.3830    -5.6440    -0.0450 ns         1 06S      -0.473500
     48 O14          7.4950    -6.4490     0.0640 o          1 06S      -0.550000
     49 H1          -3.2060    -2.8310     0.5650 h5         1 06S       0.077100
     50 H2          -9.9380    -1.5520    -2.4470 hn         1 06S       0.496500
     51 H3          -8.8840    -0.2110    -2.5750 hn         1 06S       0.496500
     52 H4          -6.7860    -0.2350    -1.5320 hn         1 06S       0.553000
     53 H5          -3.8530    -0.3390    -1.7170 h2         1 06S       0.080700
     54 H6          -5.4620     0.5810     0.6760 h1         1 06S       0.051700
     55 H7          -6.0240     2.1580    -1.0150 ho         1 06S       0.596000
     56 H8          -3.9130     2.0960     1.2800 h1         1 06S       0.049700
     57 H9          -5.0580     4.2300     2.2400 hs         1 06S       0.287800
     58 H11         -1.9640     1.2130    -0.8250 h1         1 06S       0.095700
     59 H12         -1.3170     2.2710     1.3400 h1         1 06S       0.072200
     60 H13         -1.9720     0.8720     2.2120 h1         1 06S       0.072200
     61 H14          1.7630     2.3890    -0.1800 hs         1 06S       0.362800
     62 H15          3.6420     0.5210     2.0600 h1         1 06S       0.085700
     63 H16          3.2990     0.4330    -0.7280 h1         1 06S       0.101700
     64 H17          4.9180     1.8400     0.4630 h1         1 06S       0.044700
     65 H18          5.9780     0.4610     0.7300 h1         1 06S       0.044700
     66 H19          3.5020     1.9660    -3.1920 hs         1 06S       0.294800
     67 H21          4.8620    -1.4880     2.1320 h1         1 06S       0.042700
     68 H22          3.5150    -2.8810     3.1470 ho         1 06S       0.508000
     69 H23          2.9560    -2.7050     0.0780 h2         1 06S       0.124700
     70 H24          6.4770    -2.1530     0.7120 h4         1 06S       0.223000
     71 H25          8.1790    -3.9000     0.6040 ha         1 06S       0.219000
     72 H26          5.0540    -6.5780    -0.2600 hn         1 06S       0.335500
@<TRIPOS>BOND
     1     1     2 2   
     2     2     3 1   
     3     2     6 1   
     4     3     4 1   
     5     3    10 2   
     6     4     5 2   
     7     5    11 1   
     8     5    49 1   
     9     6     7 2   
    10     7     8 1   
    11     7     9 1   
    12     8    50 1   
    13     8    51 1   
    14     9    10 1   
    15     9    52 1   
    16    10    11 1   
    17    11    12 1   
    18    12    13 1   
    19    12    21 1   
    20    12    53 1   
    21    13    14 1   
    22    13    15 1   
    23    13    54 1   
    24    14    55 1   
    25    15    16 1   
    26    15    22 1   
    27    15    56 1   
    28    16    17 1   
    29    17    18 1   
    30    17    19 1   
    31    17    20 1   
    32    18    57 1   
    33    21    22 1   
    34    22    23 1   
    35    22    58 1   
    36    23    24 1   
    37    23    59 1   
    38    23    60 1   
    39    24    25 1   
    40    25    26 2   
    41    25    27 1   
    42    25    28 1   
    43    27    61 1   
    44    28    29 1   
    45    29    30 1   
    46    29    38 1   
    47    29    62 1   
    48    30    31 1   
    49    30    37 1   
    50    30    63 1   
    51    31    32 1   
    52    31    64 1   
    53    31    65 1   
    54    32    33 1   
    55    33    34 1   
    56    33    35 1   
    57    33    36 1   
    58    34    66 1   
    59    37    40 1   
    60    38    39 1   
    61    38    40 1   
    62    38    67 1   
    63    39    68 1   
    64    40    41 1   
    65    40    69 1   
    66    41    42 1   
    67    41    44 1   
    68    42    43 2   
    69    42    47 1   
    70    44    45 2   
    71    44    70 1   
    72    45    46 1   
    73    45    71 1   
    74    46    47 1   
    75    46    48 2   
    76    47    72 1   
@<TRIPOS>SUBSTRUCTURE
     1 06S         1 TEMP              0 ****  ****    0 ROOT
