@<TRIPOS>MOLECULE
06S
   72    76     1     0     0
SMALL
No Charge or Current Charge


@<TRIPOS>ATOM
      1 O13         -0.3320    -5.0520    -3.1770 o          1 06S      -0.569100
      2 C12         -0.9960    -4.2180    -2.5780 c          1 06S       0.668000
      3 C10         -0.6430    -2.7820    -2.4440 cc         1 06S       0.106500
      4 N4           0.3950    -2.0290    -2.9480 nc         1 06S      -0.614000
      5 C14          0.1450    -0.7720    -2.5360 cd         1 06S       0.418400
      6 N3          -2.1870    -4.5600    -1.9720 nc         1 06S      -0.819100
      7 C13         -2.9320    -3.7090    -1.3450 cd         1 06S       0.901100
      8 N5          -4.0710    -4.1040    -0.8800 nv         1 06S      -1.054200
      9 N2          -2.6860    -2.3930    -1.2590 na         1 06S      -0.920200
     10 C11         -1.4650    -1.9860    -1.7470 cd         1 06S       0.210000
     11 N1          -1.0450    -0.6850    -1.8020 na         1 06S      -0.191500
     12 C5          -1.6560     0.5490    -1.2850 c5         1 06S       0.299300
     13 C6          -2.7310     0.4900    -0.1450 c5         1 06S       0.107300
     14 O8          -4.0110    -0.1040    -0.4830 oh         1 06S      -0.790000
     15 C7          -2.7690     2.0240     0.1950 c5         1 06S       0.162300
     16 O9          -3.4210     2.7830    -0.8630 os         1 06S      -0.545400
     17 P2          -5.0090     3.0430    -0.7650 p5         1 06S       1.224800
     18 S2          -4.9930     4.4360     0.7870 sh         1 06S      -0.627200
     19 O11         -5.7090     1.7970    -0.3520 o          1 06S      -0.737000
     20 O12         -5.5460     3.6460    -2.0160 o          1 06S      -0.737000
     21 O6          -0.6240     1.3500    -0.6660 os         1 06S      -0.443000
     22 C8          -1.2530     2.4010     0.1280 c5         1 06S       0.156300
     23 C9          -0.5980     2.4910     1.5330 c3         1 06S       0.204600
     24 O7           0.8130     2.7290     1.3960 os         1 06S      -0.557400
     25 P1           1.7610     2.4170     2.6560 p5         1 06S       1.128200
     26 O10          1.3800     3.0880     3.9280 o          1 06S      -0.495000
     27 S1           3.6190     2.9470     1.8710 sh         1 06S      -0.547200
     28 O3           1.7640     0.7960     2.6810 os         1 06S      -0.544400
     29 C2           2.6910    -0.0440     1.9230 c5         1 06S       0.183300
     30 C3           2.4010     0.0890     0.3720 c5         1 06S       0.122300
     31 C4           3.6730    -0.0210    -0.5150 c3         1 06S       0.209600
     32 O1           3.3370     0.2850    -1.8820 os         1 06S      -0.566400
     33 P            3.8400     1.6360    -2.6050 p5         1 06S       1.213800
     34 S            2.8400     3.0290    -1.4210 sh         1 06S      -0.669200
     35 O4           3.3350     1.7310    -4.0010 o          1 06S      -0.738500
     36 O5           5.3170     1.7990    -2.4950 o          1 06S      -0.738500
     37 O            1.5120    -1.0150     0.0540 os         1 06S      -0.432000
     38 C1           2.2930    -1.5380     2.1820 c5         1 06S       0.124300
     39 O2           2.0930    -1.8760     3.5710 oh         1 06S      -0.674000
     40 C            1.0180    -1.5410     1.2880 c5         1 06S       0.293700
     41 N            0.5000    -2.9220     1.1040 n          1 06S      -0.312000
     42 C18         -0.7810    -3.2210     1.6070 c          1 06S       0.623000
     43 O15         -1.4990    -2.3990     2.1500 o          1 06S      -0.543000
     44 C16          1.2890    -3.9000     0.4950 cc         1 06S       0.024600
     45 C15          0.8030    -5.1830     0.4020 cd         1 06S      -0.402200
     46 C17         -0.5170    -5.5520     0.9180 c          1 06S       0.595200
     47 N6          -1.1880    -4.5120     1.4740 ns         1 06S      -0.473500
     48 O14         -0.9780    -6.6780     0.8710 o          1 06S      -0.550000
     49 H1           0.7470     0.1040    -2.7460 h5         1 06S       0.077100
     50 H2          -4.3050    -5.0270    -1.2140 hn         1 06S       0.496500
     51 H3          -4.8160    -3.4290    -0.9440 hn         1 06S       0.496500
     52 H4          -3.3430    -1.7430    -0.8270 hn         1 06S       0.553000
     53 H5          -2.0610     1.0740    -2.1590 h2         1 06S       0.080700
     54 H6          -2.3050    -0.0580     0.7080 h1         1 06S       0.051700
     55 H7          -4.7180     0.6220    -0.4150 ho         1 06S       0.596000
     56 H8          -3.2220     2.2400     1.1730 h1         1 06S       0.049700
     57 H9          -5.3030     3.3810     1.5740 hs         1 06S       0.287800
     58 H11         -1.1100     3.3640    -0.3780 h1         1 06S       0.095700
     59 H12         -1.0730     3.3060     2.0950 h1         1 06S       0.072200
     60 H13         -0.7900     1.5520     2.0710 h1         1 06S       0.072200
     61 H14          2.9460     3.0330     0.6890 hs         1 06S       0.362800
     62 H15          3.7310     0.1700     2.2070 h1         1 06S       0.085700
     63 H16          1.8850     1.0190     0.1250 h1         1 06S       0.101700
     64 H17          4.4350     0.6710    -0.1330 h1         1 06S       0.044700
     65 H18          4.0810    -1.0380    -0.4390 h1         1 06S       0.044700
     66 H19          1.9020     2.9680    -2.3940 hs         1 06S       0.294800
     67 H21          3.0640    -2.1960     1.7570 h1         1 06S       0.042700
     68 H22          1.8930    -2.8390     3.6150 ho         1 06S       0.508000
     69 H23          0.2300    -0.8970     1.7000 h2         1 06S       0.124700
     70 H24          2.2430    -3.5420     0.1140 h4         1 06S       0.223000
     71 H25          1.3610    -5.9870    -0.0620 ha         1 06S       0.219000
     72 H26         -2.1050    -4.7210     1.8320 hn         1 06S       0.335500
@<TRIPOS>BOND
     1     1     2 2   
     2     2     3 1   
     3     2     6 1   
     4     3     4 1   
     5     3    10 2   
     6     4     5 2   
     7     5    11 1   
     8     5    49 1   
     9     6     7 2   
    10     7     8 1   
    11     7     9 1   
    12     8    50 1   
    13     8    51 1   
    14     9    10 1   
    15     9    52 1   
    16    10    11 1   
    17    11    12 1   
    18    12    13 1   
    19    12    21 1   
    20    12    53 1   
    21    13    14 1   
    22    13    15 1   
    23    13    54 1   
    24    14    55 1   
    25    15    16 1   
    26    15    22 1   
    27    15    56 1   
    28    16    17 1   
    29    17    18 1   
    30    17    19 1   
    31    17    20 1   
    32    18    57 1   
    33    21    22 1   
    34    22    23 1   
    35    22    58 1   
    36    23    24 1   
    37    23    59 1   
    38    23    60 1   
    39    24    25 1   
    40    25    26 2   
    41    25    27 1   
    42    25    28 1   
    43    27    61 1   
    44    28    29 1   
    45    29    30 1   
    46    29    38 1   
    47    29    62 1   
    48    30    31 1   
    49    30    37 1   
    50    30    63 1   
    51    31    32 1   
    52    31    64 1   
    53    31    65 1   
    54    32    33 1   
    55    33    34 1   
    56    33    35 1   
    57    33    36 1   
    58    34    66 1   
    59    37    40 1   
    60    38    39 1   
    61    38    40 1   
    62    38    67 1   
    63    39    68 1   
    64    40    41 1   
    65    40    69 1   
    66    41    42 1   
    67    41    44 1   
    68    42    43 2   
    69    42    47 1   
    70    44    45 2   
    71    44    70 1   
    72    45    46 1   
    73    45    71 1   
    74    46    47 1   
    75    46    48 2   
    76    47    72 1   
@<TRIPOS>SUBSTRUCTURE
     1 06S         1 TEMP              0 ****  ****    0 ROOT
