@<TRIPOS>MOLECULE
06T
   75    78     1     0     0
SMALL
abcg2


@<TRIPOS>ATOM
      1 C1          -2.5910     3.0920     0.9670 c3         1 06T      -0.022800
      2 C2          -2.4170     1.6530     0.5990 cc         1 06T      -0.054300
      3 C3          -1.2540     0.9370     0.5810 cd         1 06T      -0.164300
      4 N1          -1.5690    -0.4010     0.1940 na         1 06T       0.102200
      5 C4          -2.9090    -0.4990    -0.0260 cd         1 06T      -0.068300
      6 C5          -3.4700     0.7480     0.2080 cc         1 06T      -0.257600
      7 C6          -4.8920     0.9540     0.1080 c          1 06T       0.611700
      8 O1          -5.4490     2.0320     0.3320 o          1 06T      -0.550100
      9 C7          -5.6920    -0.2570    -0.3410 c6         1 06T      -0.172400
     10 C8          -5.1280    -1.6190     0.1060 c6         1 06T      -0.036000
     11 C9          -3.6590    -1.7390    -0.3570 c6         1 06T      -0.015100
     12 C10         -5.2070    -1.7300     1.6350 c3         1 06T      -0.087600
     13 C11         -5.9460    -2.7390    -0.5370 c3         1 06T      -0.087600
     14 C12         -0.5840    -1.3950    -0.0630 ca         1 06T       0.056800
     15 C13         -0.5640    -2.1110    -1.2610 ca         1 06T      -0.176000
     16 C14          0.5310    -2.9120    -1.5280 ca         1 06T      -0.035000
     17 C15          1.6670    -2.9410    -0.7050 ca         1 06T      -0.230600
     18 C16          1.6610    -2.1610     0.4810 ca         1 06T       0.370000
     19 C17          0.4590    -1.5300     0.8340 ca         1 06T      -0.199000
     20 N2           2.7720    -1.9690     1.2790 nu         1 06T      -0.926200
     21 C18          3.0250    -0.6370     1.8650 c3         1 06T       0.213500
     22 C19          3.3210     0.4250     0.7600 c3         1 06T      -0.110700
     23 C20          2.9950     1.8790     1.2230 c3         1 06T       0.106000
     24 N3           2.1210     2.6290     0.2980 n          1 06T      -0.430800
     25 C21          0.6890     2.6910     0.6340 c3         1 06T       0.117000
     26 C22          0.1650     1.2810     0.8930 c3         1 06T      -0.038100
     27 C23          2.6880     3.2910    -0.7410 c          1 06T       0.593100
     28 O2           3.9100     3.3150    -0.9000 o          1 06T      -0.586100
     29 C24          1.7650     3.9700    -1.7600 c3         1 06T       0.094500
     30 C25          1.1320     2.9110    -2.6680 c3         1 06T      -0.086100
     31 N4           2.5420     4.9020    -2.5840 n8         1 06T      -0.982200
     32 C26          4.7390     0.3100     0.1980 c3         1 06T      -0.093100
     33 C27          4.1150    -0.7660     2.9220 c3         1 06T      -0.090100
     34 C28          2.8730    -3.7090    -1.1150 c          1 06T       0.626700
     35 O3           4.0060    -3.4470    -0.6840 o          1 06T      -0.636100
     36 N5           2.6920    -4.7110    -1.9990 nt         1 06T      -0.597000
     37 H1          -2.8470     3.6960     0.0950 hc         1 06T       0.047033
     38 H2          -3.4070     3.2120     1.6790 hc         1 06T       0.047033
     39 H3          -1.6890     3.5020     1.4130 hc         1 06T       0.047033
     40 H4          -6.7170    -0.1380     0.0090 hc         1 06T       0.068200
     41 H5          -5.7200    -0.2190    -1.4350 hc         1 06T       0.068200
     42 H6          -3.6400    -1.9190    -1.4360 hc         1 06T       0.059700
     43 H7          -3.1870    -2.6050     0.1100 hc         1 06T       0.059700
     44 H8          -6.2210    -1.5230     1.9800 hc         1 06T       0.039200
     45 H9          -4.9290    -2.7320     1.9640 hc         1 06T       0.039200
     46 H10         -4.5400    -1.0220     2.1230 hc         1 06T       0.039200
     47 H11         -5.9350    -2.6540    -1.6250 hc         1 06T       0.039200
     48 H12         -5.5430    -3.7160    -0.2690 hc         1 06T       0.039200
     49 H13         -6.9840    -2.7000    -0.2060 hc         1 06T       0.039200
     50 H14         -1.3570    -2.0120    -1.9840 ha         1 06T       0.129000
     51 H15          0.5390    -3.4560    -2.4600 ha         1 06T       0.112000
     52 H16          0.3950    -1.0420     1.7880 ha         1 06T       0.135000
     53 H17          3.5960    -2.3770     0.8550 hn         1 06T       0.500000
     54 H18          2.1210    -0.3250     2.3810 h1         1 06T       0.049700
     55 H19          2.6390     0.2020    -0.0580 hc         1 06T       0.056700
     56 H20          2.4920     1.8650     2.1880 h1         1 06T       0.056700
     57 H21          3.9130     2.4460     1.3450 h1         1 06T       0.056700
     58 H22          0.5650     3.3210     1.5150 h1         1 06T       0.054700
     59 H23          0.1460     3.1530    -0.1760 h1         1 06T       0.054700
     60 H24          0.3870     1.0160     1.9260 hc         1 06T       0.060200
     61 H25          0.7750     0.6300     0.2840 hc         1 06T       0.060200
     62 H26          0.9740     4.4970    -1.2250 h1         1 06T       0.022700
     63 H27          0.5100     2.2110    -2.1130 hc         1 06T       0.047367
     64 H28          0.5070     3.4010    -3.4150 hc         1 06T       0.047367
     65 H29          1.9120     2.3510    -3.1830 hc         1 06T       0.047367
     66 H30          1.8930     5.5130    -3.0680 hn         1 06T       0.402000
     67 H31          3.1110     5.4950    -1.9920 hn         1 06T       0.402000
     68 H33          5.4830     0.5770     0.9480 hc         1 06T       0.047700
     69 H34          4.9480    -0.7050    -0.1430 hc         1 06T       0.047700
     70 H35          4.8610     0.9860    -0.6440 hc         1 06T       0.047700
     71 H36          5.0220    -1.2060     2.5100 hc         1 06T       0.046033
     72 H37          4.3720     0.2100     3.3340 hc         1 06T       0.046033
     73 H38          3.7680    -1.4030     3.7340 hc         1 06T       0.046033
     74 H39          1.7840    -5.0410    -2.2720 hn         1 06T       0.317500
     75 H40          3.4930    -5.2490    -2.2820 hn         1 06T       0.317500
@<TRIPOS>BOND
     1     1     2 1   
     2     1    37 1   
     3     1    38 1   
     4     1    39 1   
     5     2     3 2   
     6     2     6 1   
     7     3     4 1   
     8     3    26 1   
     9     4     5 1   
    10     4    14 1   
    11     5     6 2   
    12     5    11 1   
    13     6     7 1   
    14     7     8 2   
    15     7     9 1   
    16     9    10 1   
    17     9    40 1   
    18     9    41 1   
    19    10    11 1   
    20    10    12 1   
    21    10    13 1   
    22    11    42 1   
    23    11    43 1   
    24    12    44 1   
    25    12    45 1   
    26    12    46 1   
    27    13    47 1   
    28    13    48 1   
    29    13    49 1   
    30    14    15 ar  
    31    14    19 ar  
    32    15    16 ar  
    33    15    50 1   
    34    16    17 ar  
    35    16    51 1   
    36    17    18 ar  
    37    17    34 1   
    38    18    19 ar  
    39    18    20 1   
    40    19    52 1   
    41    20    21 1   
    42    20    53 1   
    43    21    22 1   
    44    21    33 1   
    45    21    54 1   
    46    22    23 1   
    47    22    32 1   
    48    22    55 1   
    49    23    24 1   
    50    23    56 1   
    51    23    57 1   
    52    24    25 1   
    53    24    27 1   
    54    25    26 1   
    55    25    58 1   
    56    25    59 1   
    57    26    60 1   
    58    26    61 1   
    59    27    28 2   
    60    27    29 1   
    61    29    30 1   
    62    29    31 1   
    63    29    62 1   
    64    30    63 1   
    65    30    64 1   
    66    30    65 1   
    67    31    66 1   
    68    31    67 1   
    69    32    68 1   
    70    32    69 1   
    71    32    70 1   
    72    33    71 1   
    73    33    72 1   
    74    33    73 1   
    75    34    35 2   
    76    34    36 1   
    77    36    74 1   
    78    36    75 1   
@<TRIPOS>SUBSTRUCTURE
     1 06T         1 TEMP              0 ****  ****    0 ROOT
