@<TRIPOS>MOLECULE
06T
   75    78     1     0     0
SMALL
No Charge or Current Charge


@<TRIPOS>ATOM
      1 C1          -2.9090     3.1030     0.4320 c3         1 06T      -0.022800
      2 C2          -2.6180     1.6250     0.4910 cc         1 06T      -0.054300
      3 C3          -1.4170     1.0130     0.7780 cd         1 06T      -0.164300
      4 N1          -1.6990    -0.3650     0.7650 na         1 06T       0.102200
      5 C4          -2.9980    -0.6260     0.3410 cd         1 06T      -0.068300
      6 C5          -3.5800     0.6060     0.2190 cc         1 06T      -0.257600
      7 C6          -5.0140     0.7650    -0.1380 c          1 06T       0.611700
      8 O1          -5.6020     1.8390    -0.1690 o          1 06T      -0.550100
      9 C7          -5.7530    -0.5520    -0.4500 c6         1 06T      -0.172400
     10 C8          -5.2480    -1.7850     0.3650 c6         1 06T      -0.036000
     11 C9          -3.7110    -1.9490     0.1540 c6         1 06T      -0.015100
     12 C10         -5.5770    -1.6010     1.8790 c3         1 06T      -0.087600
     13 C11         -5.9870    -3.0700    -0.1120 c3         1 06T      -0.087600
     14 C12         -0.6870    -1.2080     0.2810 ca         1 06T       0.056800
     15 C13         -0.6480    -1.6350    -1.0600 ca         1 06T      -0.176000
     16 C14          0.4270    -2.4030    -1.5360 ca         1 06T      -0.035000
     17 C15          1.5370    -2.6910    -0.7030 ca         1 06T      -0.230600
     18 C16          1.5030    -2.2230     0.6300 ca         1 06T       0.370000
     19 C17          0.3720    -1.5640     1.1250 ca         1 06T      -0.199000
     20 N2           2.6550    -2.1770     1.4090 nu         1 06T      -0.926200
     21 C18          3.1720    -0.9030     1.9440 c3         1 06T       0.213500
     22 C19          3.3140     0.1680     0.8010 c3         1 06T      -0.110700
     23 C20          2.9940     1.6150     1.2790 c3         1 06T       0.106000
     24 N3           2.2250     2.4160     0.2700 n          1 06T      -0.430800
     25 C21          0.8130     1.9910    -0.0370 c3         1 06T       0.117000
     26 C22         -0.0890     1.6410     1.1720 c3         1 06T      -0.038100
     27 C23          2.9310     3.3400    -0.5610 c          1 06T       0.593100
     28 O2           4.1240     3.5550    -0.3590 o          1 06T      -0.586100
     29 C24          2.1700     4.1350    -1.7070 c3         1 06T       0.094500
     30 C25          1.9240     3.2440    -2.9480 c3         1 06T      -0.086100
     31 N4           2.8050     5.4200    -2.1580 n8         1 06T      -0.982200
     32 C26          4.6470     0.0880     0.0150 c3         1 06T      -0.093100
     33 C27          4.4460    -1.1400     2.7810 c3         1 06T      -0.090100
     34 C28          2.7420    -3.4280    -1.2450 c          1 06T       0.626700
     35 O3           3.6870    -3.7790    -0.5560 o          1 06T      -0.636100
     36 N5           2.7660    -3.7290    -2.5590 nt         1 06T      -0.597000
     37 H1          -3.3300     3.3800    -0.5420 hc         1 06T       0.047033
     38 H2          -3.6270     3.3900     1.2090 hc         1 06T       0.047033
     39 H3          -2.0030     3.7010     0.5770 hc         1 06T       0.047033
     40 H4          -6.8380    -0.3960    -0.3740 hc         1 06T       0.068200
     41 H5          -5.5300    -0.7600    -1.5040 hc         1 06T       0.068200
     42 H6          -3.5160    -2.3270    -0.8590 hc         1 06T       0.059700
     43 H7          -3.3090    -2.7060     0.8420 hc         1 06T       0.059700
     44 H8          -6.6550    -1.4760     2.0420 hc         1 06T       0.039200
     45 H9          -5.2550    -2.4690     2.4670 hc         1 06T       0.039200
     46 H10         -5.0800    -0.7210     2.3030 hc         1 06T       0.039200
     47 H11         -5.8110    -3.2610    -1.1780 hc         1 06T       0.039200
     48 H12         -5.6480    -3.9560     0.4400 hc         1 06T       0.039200
     49 H13         -7.0710    -2.9870     0.0310 hc         1 06T       0.039200
     50 H14         -1.4470    -1.3620    -1.7450 ha         1 06T       0.129000
     51 H15          0.4020    -2.7230    -2.5740 ha         1 06T       0.112000
     52 H16          0.3600    -1.2340     2.1590 ha         1 06T       0.135000
     53 H17          3.3770    -2.7810     1.0000 hn         1 06T       0.500000
     54 H18          2.4210    -0.5220     2.6490 h1         1 06T       0.049700
     55 H19          2.5510    -0.0550     0.0520 hc         1 06T       0.056700
     56 H20          2.4170     1.5860     2.2100 h1         1 06T       0.056700
     57 H21          3.9310     2.1190     1.5520 h1         1 06T       0.056700
     58 H22          0.2840     2.7720    -0.5910 h1         1 06T       0.054700
     59 H23          0.8550     1.1160    -0.6980 h1         1 06T       0.054700
     60 H24         -0.2630     2.5560     1.7490 hc         1 06T       0.060200
     61 H25          0.4310     0.9710     1.8590 hc         1 06T       0.060200
     62 H26          1.1970     4.4310    -1.2970 h1         1 06T       0.022700
     63 H27          1.3650     2.3380    -2.6930 hc         1 06T       0.047367
     64 H28          1.3490     3.7850    -3.7090 hc         1 06T       0.047367
     65 H29          2.8770     2.9340    -3.3940 hc         1 06T       0.047367
     66 H30          2.1500     5.9330    -2.7610 hn         1 06T       0.402000
     67 H31          2.9300     6.0400    -1.3480 hn         1 06T       0.402000
     68 H33          5.4950     0.4000     0.6360 hc         1 06T       0.047700
     69 H34          4.8310    -0.9340    -0.3360 hc         1 06T       0.047700
     70 H35          4.6140     0.7420    -0.8650 hc         1 06T       0.047700
     71 H36          5.2370    -1.6060     2.1830 hc         1 06T       0.046033
     72 H37          4.8240    -0.1910     3.1800 hc         1 06T       0.046033
     73 H38          4.2270    -1.8000     3.6290 hc         1 06T       0.046033
     74 H39          2.0070    -3.4540    -3.1600 hn         1 06T       0.317500
     75 H40          3.5610    -4.2250    -2.9310 hn         1 06T       0.317500
@<TRIPOS>BOND
     1     1     2 1   
     2     1    37 1   
     3     1    38 1   
     4     1    39 1   
     5     2     3 2   
     6     2     6 1   
     7     3     4 1   
     8     3    26 1   
     9     4     5 1   
    10     4    14 1   
    11     5     6 2   
    12     5    11 1   
    13     6     7 1   
    14     7     8 2   
    15     7     9 1   
    16     9    10 1   
    17     9    40 1   
    18     9    41 1   
    19    10    11 1   
    20    10    12 1   
    21    10    13 1   
    22    11    42 1   
    23    11    43 1   
    24    12    44 1   
    25    12    45 1   
    26    12    46 1   
    27    13    47 1   
    28    13    48 1   
    29    13    49 1   
    30    14    15 ar  
    31    14    19 ar  
    32    15    16 ar  
    33    15    50 1   
    34    16    17 ar  
    35    16    51 1   
    36    17    18 ar  
    37    17    34 1   
    38    18    19 ar  
    39    18    20 1   
    40    19    52 1   
    41    20    21 1   
    42    20    53 1   
    43    21    22 1   
    44    21    33 1   
    45    21    54 1   
    46    22    23 1   
    47    22    32 1   
    48    22    55 1   
    49    23    24 1   
    50    23    56 1   
    51    23    57 1   
    52    24    25 1   
    53    24    27 1   
    54    25    26 1   
    55    25    58 1   
    56    25    59 1   
    57    26    60 1   
    58    26    61 1   
    59    27    28 2   
    60    27    29 1   
    61    29    30 1   
    62    29    31 1   
    63    29    62 1   
    64    30    63 1   
    65    30    64 1   
    66    30    65 1   
    67    31    66 1   
    68    31    67 1   
    69    32    68 1   
    70    32    69 1   
    71    32    70 1   
    72    33    71 1   
    73    33    72 1   
    74    33    73 1   
    75    34    35 2   
    76    34    36 1   
    77    36    74 1   
    78    36    75 1   
@<TRIPOS>SUBSTRUCTURE
     1 06T         1 TEMP              0 ****  ****    0 ROOT
