@<TRIPOS>MOLECULE
06U
   51    53     1     0     0
SMALL
bcc


@<TRIPOS>ATOM
      1 N1           4.6460    -1.5750    -1.2630 nb         1 06U      -0.870000
      2 C2           5.7600    -0.8750    -1.0510 ca         1 06U       0.957900
      3 N3           5.8640     0.2570    -0.3450 nb         1 06U      -0.821000
      4 C4           4.7450     0.7350     0.1860 ca         1 06U       0.551600
      5 C5           3.5160     0.1010     0.0250 ca         1 06U      -0.354600
      6 C6           3.5250    -1.0990    -0.7350 ca         1 06U       0.775200
      7 CAA         -5.2990    -0.0020    -1.4890 ca         1 06U      -0.238800
      8 NAH          6.8880    -1.3400    -1.6170 nv         1 06U      -0.956500
      9 CAI          4.8540     2.0300     0.9330 c3         1 06U      -0.135700
     10 NAJ          2.3950    -1.7830    -0.9510 nv         1 06U      -0.965500
     11 CAK          2.3020     0.5880     0.5680 cg         1 06U      -0.072000
     12 CAL          1.2280     0.9370     0.9960 c1         1 06U      -0.169100
     13 CAM         -0.0760     1.3380     1.5180 c3         1 06U       0.079700
     14 CAN         -0.0650     1.4150     3.0510 c3         1 06U      -0.082100
     15 CAO         -1.1620     0.3990     1.0290 ca         1 06U      -0.038300
     16 CAP         -0.9970    -0.9750     1.1120 ca         1 06U      -0.156000
     17 CAQ         -2.0110    -1.8360     0.6910 ca         1 06U       0.139100
     18 CAR         -3.1960    -1.3120     0.1830 ca         1 06U      -0.202000
     19 CAS         -3.3650     0.0700     0.1000 cp         1 06U      -0.005000
     20 CAT         -2.3480     0.9200     0.5250 ca         1 06U      -0.146000
     21 CAU         -4.6180     0.6250    -0.4480 cp         1 06U       0.005000
     22 CAV         -5.1710     1.8030     0.0500 ca         1 06U      -0.238800
     23 CAW         -6.3480     2.2850    -0.5010 ca         1 06U       0.399200
     24 NAX         -6.9960     1.6860    -1.4940 nb         1 06U      -0.662000
     25 CAY         -6.4690     0.5640    -1.9700 ca         1 06U       0.399200
     26 CAZ          4.6410     3.2220     0.0010 c3         1 06U      -0.084100
     27 OBA         -1.7600    -3.1500     0.8160 os         1 06U      -0.320900
     28 CBB         -2.7410    -4.0740     0.3890 c3         1 06U       0.124700
     29 HNAH         6.8970    -2.2570    -2.0270 hn         1 06U       0.442800
     30 HNAA         7.7690    -0.9290    -1.3650 hn         1 06U       0.442800
     31 HAI          4.1210     2.0630     1.7410 hc         1 06U       0.059700
     32 HAIA         5.8440     2.0890     1.3860 hc         1 06U       0.059700
     33 HNAJ         2.4270    -2.6640    -1.4340 hn         1 06U       0.447800
     34 HNAB         1.5320    -1.5110    -0.5140 hn         1 06U       0.447800
     35 HAM         -0.3030     2.3380     1.1350 hc         1 06U       0.066700
     36 HAN         -1.0410     1.7330     3.4170 hc         1 06U       0.042700
     37 HANA         0.1680     0.4450     3.4900 hc         1 06U       0.042700
     38 HANB         0.6790     2.1340     3.3930 hc         1 06U       0.042700
     39 HAP         -0.0790    -1.3960     1.5070 ha         1 06U       0.149000
     40 HAR         -4.0030    -1.9610    -0.1300 ha         1 06U       0.139000
     41 HAT         -2.4650     1.9930     0.4380 ha         1 06U       0.138000
     42 HAV         -4.7100     2.3380     0.8700 ha         1 06U       0.142000
     43 HAW         -6.7870     3.1980    -0.1150 h4         1 06U       0.019100
     44 HAY         -7.0020     0.0840    -2.7840 h4         1 06U       0.019100
     45 HAZ          4.7340     4.1590     0.5510 hc         1 06U       0.038367
     46 HAZA         5.3770     3.2290    -0.8030 hc         1 06U       0.038367
     47 HAZB         3.6480     3.1990    -0.4500 hc         1 06U       0.038367
     48 HBB         -2.9650    -3.9680    -0.6760 h1         1 06U       0.042367
     49 HBBA        -2.3290    -5.0650     0.5620 h1         1 06U       0.042367
     50 HBBB        -3.6700    -3.9750     0.9570 h1         1 06U       0.042367
     51 HAA         -4.9220    -0.9080    -1.9430 ha         1 06U       0.142000
@<TRIPOS>BOND
     1     1     2 ar  
     2     1     6 ar  
     3     2     3 ar  
     4     2     8 1   
     5     3     4 ar  
     6     4     5 ar  
     7     4     9 1   
     8     5     6 ar  
     9     5    11 1   
    10     6    10 1   
    11     7    21 ar  
    12     7    25 ar  
    13     7    51 1   
    14     8    29 1   
    15     8    30 1   
    16     9    26 1   
    17     9    31 1   
    18     9    32 1   
    19    10    33 1   
    20    10    34 1   
    21    11    12 3   
    22    12    13 1   
    23    13    14 1   
    24    13    15 1   
    25    13    35 1   
    26    14    36 1   
    27    14    37 1   
    28    14    38 1   
    29    15    16 ar  
    30    15    20 ar  
    31    16    17 ar  
    32    16    39 1   
    33    17    18 ar  
    34    17    27 1   
    35    18    19 ar  
    36    18    40 1   
    37    19    20 ar  
    38    19    21 1   
    39    20    41 1   
    40    21    22 ar  
    41    22    23 ar  
    42    22    42 1   
    43    23    24 ar  
    44    23    43 1   
    45    24    25 ar  
    46    25    44 1   
    47    26    45 1   
    48    26    46 1   
    49    26    47 1   
    50    27    28 1   
    51    28    48 1   
    52    28    49 1   
    53    28    50 1   
@<TRIPOS>SUBSTRUCTURE
     1 06U         1 TEMP              0 ****  ****    0 ROOT
