@<TRIPOS>MOLECULE
06U
   51    53     1     0     0
SMALL
No Charge or Current Charge


@<TRIPOS>ATOM
      1 N1           5.4410     1.1120    -2.1380 nb         1 06U      -0.344000
      2 C2           5.6690    -0.1540    -1.7770 ca         1 06U       0.431900
      3 N3           4.8950    -0.9520    -1.0310 nb         1 06U      -0.295000
      4 C4           3.7380    -0.4210    -0.5830 ca         1 06U       0.223300
      5 C5           3.3850     0.9150    -0.8960 ca         1 06U      -0.224000
      6 C6           4.2990     1.6390    -1.6910 ca         1 06U       0.446900
      7 CAA         -4.7800    -1.6490    -0.8170 ca         1 06U      -0.155500
      8 NAH          6.8230    -0.6930    -2.2250 nv         1 06U      -1.066900
      9 CAI          2.8600    -1.3500     0.2630 c3         1 06U      -0.135700
     10 NAJ          4.0900     2.9270    -2.0740 nv         1 06U      -1.075900
     11 CAK          2.1520     1.4960    -0.4310 cg         1 06U      -0.072000
     12 CAL          1.1030     1.9570    -0.0290 c1         1 06U      -0.169100
     13 CAM         -0.1850     2.4480     0.4790 c3         1 06U       0.079700
     14 CAN          0.0060     3.3950     1.6850 c3         1 06U      -0.082100
     15 CAO         -1.0930     1.2580     0.8070 ca         1 06U      -0.038300
     16 CAP         -0.7870     0.3830     1.8680 ca         1 06U      -0.138000
     17 CAQ         -1.6120    -0.7140     2.1540 ca         1 06U       0.139100
     18 CAR         -2.7600    -0.9470     1.3690 ca         1 06U      -0.184000
     19 CAS         -3.0950    -0.0900     0.2920 cp         1 06U      -0.005000
     20 CAT         -2.2420     1.0120     0.0300 ca         1 06U      -0.128000
     21 CAU         -4.3110    -0.3400    -0.5480 cp         1 06U       0.005000
     22 CAV         -5.0570     0.7180    -1.1210 ca         1 06U      -0.155500
     23 CAW         -6.1890     0.4400    -1.9050 ca         1 06U       0.333900
     24 NAX         -6.6220    -0.8170    -2.1540 nb         1 06U      -0.662000
     25 CAY         -5.9210    -1.8390    -1.6140 ca         1 06U       0.333900
     26 CAZ          3.0340    -1.1270     1.7810 c3         1 06U      -0.084100
     27 OBA         -1.2540    -1.5270     3.2110 os         1 06U      -0.344100
     28 CBB         -2.0310    -2.6760     3.5970 c3         1 06U       0.147900
     29 HNAH         7.3150    -0.2090    -2.9740 hn         1 06U       0.498000
     30 HNAA         6.9290    -1.7050    -2.1850 hn         1 06U       0.498000
     31 HAI          1.8030    -1.2200     0.0000 hc         1 06U       0.059700
     32 HAIA         3.0920    -2.3990     0.0360 hc         1 06U       0.059700
     33 HNAJ         4.6450     3.2910    -2.8450 hn         1 06U       0.503000
     34 HNAB         3.1550     3.3100    -1.9610 hn         1 06U       0.503000
     35 HAM         -0.6390     3.0420    -0.3250 hc         1 06U       0.066700
     36 HAN         -0.9660     3.7460     2.0510 hc         1 06U       0.042700
     37 HANA         0.5230     2.8930     2.5120 hc         1 06U       0.042700
     38 HANB         0.5970     4.2730     1.3970 hc         1 06U       0.042700
     39 HAP          0.1000     0.5460     2.4730 ha         1 06U       0.131000
     40 HAR         -3.4130    -1.7860     1.5900 ha         1 06U       0.121000
     41 HAT         -2.4690     1.6740    -0.8020 ha         1 06U       0.120000
     42 HAV         -4.7750     1.7520    -0.9520 ha         1 06U       0.124000
     43 HAW         -6.7690     1.2490    -2.3460 h4         1 06U       0.019100
     44 HAY         -6.2840    -2.8440    -1.8300 h4         1 06U       0.019100
     45 HAZ          2.3940    -1.8200     2.3440 hc         1 06U       0.038367
     46 HAZA         4.0750    -1.3000     2.0820 hc         1 06U       0.038367
     47 HAZB         2.7590    -0.1030     2.0610 hc         1 06U       0.038367
     48 HBB         -2.0950    -3.3980     2.7730 h1         1 06U       0.042367
     49 HBBA        -1.5660    -3.1780     4.4540 h1         1 06U       0.042367
     50 HBBB        -3.0470    -2.3790     3.8870 h1         1 06U       0.042367
     51 HAA         -4.2600    -2.5180    -0.4280 ha         1 06U       0.124000
@<TRIPOS>BOND
     1     1     2 ar  
     2     1     6 ar  
     3     2     3 ar  
     4     2     8 1   
     5     3     4 ar  
     6     4     5 ar  
     7     4     9 1   
     8     5     6 ar  
     9     5    11 1   
    10     6    10 1   
    11     7    21 ar  
    12     7    25 ar  
    13     7    51 1   
    14     8    29 1   
    15     8    30 1   
    16     9    26 1   
    17     9    31 1   
    18     9    32 1   
    19    10    33 1   
    20    10    34 1   
    21    11    12 3   
    22    12    13 1   
    23    13    14 1   
    24    13    15 1   
    25    13    35 1   
    26    14    36 1   
    27    14    37 1   
    28    14    38 1   
    29    15    16 ar  
    30    15    20 ar  
    31    16    17 ar  
    32    16    39 1   
    33    17    18 ar  
    34    17    27 1   
    35    18    19 ar  
    36    18    40 1   
    37    19    20 ar  
    38    19    21 1   
    39    20    41 1   
    40    21    22 ar  
    41    22    23 ar  
    42    22    42 1   
    43    23    24 ar  
    44    23    43 1   
    45    24    25 ar  
    46    25    44 1   
    47    26    45 1   
    48    26    46 1   
    49    26    47 1   
    50    27    28 1   
    51    28    48 1   
    52    28    49 1   
    53    28    50 1   
@<TRIPOS>SUBSTRUCTURE
     1 06U         1 TEMP              0 ****  ****    0 ROOT
