@<TRIPOS>MOLECULE
06V
   55    57     1     0     0
SMALL
No Charge or Current Charge


@<TRIPOS>ATOM
      1 N1           5.3100     1.8800    -1.6890 nb         1 06V      -0.332000
      2 C2           5.7320     0.6150    -1.6340 ca         1 06V       0.421900
      3 N3           5.1380    -0.4260    -1.0390 nb         1 06V      -0.287000
      4 C4           3.9700    -0.1730    -0.4130 ca         1 06V       0.219300
      5 C5           3.4190     1.1330    -0.3970 ca         1 06V      -0.211000
      6 C6           4.1540     2.1310    -1.0700 ca         1 06V       0.426900
      7 CAA         -5.5600    -0.8560    -0.2860 c6         1 06V       0.161800
      8 NAH          6.8990     0.3550    -2.2630 nv         1 06V      -1.058900
      9 CAI          3.3060    -1.3730     0.2680 c3         1 06V      -0.135700
     10 NAJ          3.7480     3.4270    -1.1410 nv         1 06V      -1.062900
     11 CAK          2.1770     1.4170     0.2760 cg         1 06V      -0.086000
     12 CAL          1.1290     1.6150     0.8540 c1         1 06V      -0.154100
     13 CAM         -0.1470     1.7690     1.5690 c3         1 06V       0.075700
     14 CAN          0.0760     1.9100     3.0910 c3         1 06V      -0.080100
     15 CAO         -1.0740     0.5970     1.2290 ca         1 06V      -0.014300
     16 CAP         -0.7230    -0.7260     1.5660 ca         1 06V      -0.233000
     17 CAQ         -1.5800    -1.7960     1.2380 ca         1 06V       0.168100
     18 CAR         -2.7880    -1.5420     0.5770 ca         1 06V      -0.214000
     19 CAS         -3.1520    -0.2300     0.2290 ca         1 06V       0.335000
     20 CAT         -2.2900     0.8300     0.5600 ca         1 06V      -0.186000
     21 NAU         -4.3660     0.0380    -0.4460 nh         1 06V      -0.788400
     22 CAV         -4.3500     0.7950    -1.7430 c6         1 06V       0.161800
     23 CAW         -5.7320     1.4410    -2.0670 c6         1 06V       0.146600
     24 OAX         -6.7920     0.4590    -1.9840 os         1 06V      -0.443000
     25 CAY         -6.8900    -0.1380    -0.6690 c6         1 06V       0.146600
     26 CAZ          3.5770    -1.4250     1.7860 c3         1 06V      -0.084100
     27 OBA         -1.2750    -3.1080     1.5360 os         1 06V      -0.344100
     28 CBB         -0.0320    -3.4860     2.1550 c3         1 06V       0.145900
     29 HAAA        -5.6400    -1.1990     0.7570 h1         1 06V       0.048700
     30 HNAH         7.2540     1.0480    -2.9170 hn         1 06V       0.493500
     31 HNAA         7.1430    -0.6160    -2.4490 hn         1 06V       0.493500
     32 HAI          2.2230    -1.3600     0.0950 hc         1 06V       0.061200
     33 HAIA         3.6630    -2.3080    -0.1820 hc         1 06V       0.061200
     34 HNAJ         4.4280     4.1290    -1.4220 hn         1 06V       0.491500
     35 HNAB         2.9990     3.7300    -0.5240 hn         1 06V       0.491500
     36 HAM         -0.6000     2.7060     1.2200 hc         1 06V       0.064700
     37 HAN          0.5880     1.0310     3.5030 hc         1 06V       0.042033
     38 HANA         0.6850     2.7940     3.3140 hc         1 06V       0.042033
     39 HANB        -0.8840     2.0210     3.6090 hc         1 06V       0.042033
     40 HAP          0.2190    -0.9050     2.0740 ha         1 06V       0.128000
     41 HAR         -3.4310    -2.3770     0.3220 ha         1 06V       0.127000
     42 HAT         -2.5760     1.8450     0.3030 ha         1 06V       0.116000
     43 HAV         -3.5950     1.5930    -1.7220 h1         1 06V       0.048700
     44 HAVA        -4.0770     0.1160    -2.5640 h1         1 06V       0.048700
     45 HAW         -5.9380     2.2560    -1.3580 h1         1 06V       0.053200
     46 HAWA        -5.7150     1.8680    -3.0800 h1         1 06V       0.053200
     47 HAY         -7.7190    -0.8600    -0.6610 h1         1 06V       0.053200
     48 HAYA        -7.1160     0.6460     0.0690 h1         1 06V       0.053200
     49 HAZ          4.6540    -1.4820     1.9830 hc         1 06V       0.038033
     50 HAZA         3.1820    -0.5310     2.2860 hc         1 06V       0.038033
     51 HAZB         3.0990    -2.3060     2.2330 hc         1 06V       0.038033
     52 HBB          0.0080    -4.5730     2.2960 h1         1 06V       0.042033
     53 HBBA         0.8200    -3.1930     1.5270 h1         1 06V       0.042033
     54 HBBB         0.0750    -3.0110     3.1390 h1         1 06V       0.042033
     55 HAA         -5.4470    -1.7490    -0.9190 h1         1 06V       0.048700
@<TRIPOS>BOND
     1     1     2 ar  
     2     1     6 ar  
     3     2     3 ar  
     4     2     8 1   
     5     3     4 ar  
     6     4     5 ar  
     7     4     9 1   
     8     5     6 ar  
     9     5    11 1   
    10     6    10 1   
    11     7    21 1   
    12     7    25 1   
    13     7    29 1   
    14     7    55 1   
    15     8    30 1   
    16     8    31 1   
    17     9    26 1   
    18     9    32 1   
    19     9    33 1   
    20    10    34 1   
    21    10    35 1   
    22    11    12 3   
    23    12    13 1   
    24    13    14 1   
    25    13    15 1   
    26    13    36 1   
    27    14    37 1   
    28    14    38 1   
    29    14    39 1   
    30    15    16 ar  
    31    15    20 ar  
    32    16    17 ar  
    33    16    40 1   
    34    17    18 ar  
    35    17    27 1   
    36    18    19 ar  
    37    18    41 1   
    38    19    20 ar  
    39    19    21 1   
    40    20    42 1   
    41    21    22 1   
    42    22    23 1   
    43    22    43 1   
    44    22    44 1   
    45    23    24 1   
    46    23    45 1   
    47    23    46 1   
    48    24    25 1   
    49    25    47 1   
    50    25    48 1   
    51    26    49 1   
    52    26    50 1   
    53    26    51 1   
    54    27    28 1   
    55    28    52 1   
    56    28    53 1   
    57    28    54 1   
@<TRIPOS>SUBSTRUCTURE
     1 06V         1 TEMP              0 ****  ****    0 ROOT
