@<TRIPOS>MOLECULE
06V
   55    57     1     0     0
SMALL
bcc


@<TRIPOS>ATOM
      1 N1           4.4870    -0.8360    -1.7840 nb         1 06V      -0.858000
      2 C2           5.6460    -0.3800    -1.3110 ca         1 06V       0.947900
      3 N3           5.8270     0.3110    -0.1820 nb         1 06V      -0.813000
      4 C4           4.7440     0.5730     0.5390 ca         1 06V       0.547600
      5 C5           3.4750     0.1510     0.1490 ca         1 06V      -0.341600
      6 C6           3.4050    -0.5800    -1.0640 ca         1 06V       0.755200
      7 CAA         -5.5200    -0.1810    -0.8930 c6         1 06V       0.161800
      8 NAH          6.7410    -0.6110    -2.0620 nv         1 06V      -0.948500
      9 CAI          4.9310     1.3930     1.7780 c3         1 06V      -0.135700
     10 NAJ          2.2280    -1.0660    -1.5070 nv         1 06V      -0.952500
     11 CAK          2.2930     0.4020     0.8850 cg         1 06V      -0.086000
     12 CAL          1.2210     0.5530     1.4200 c1         1 06V      -0.154100
     13 CAM         -0.0970     0.6460     2.0410 c3         1 06V       0.075700
     14 CAN         -0.0910     0.0720     3.4630 c3         1 06V      -0.080100
     15 CAO         -1.1210    -0.0560     1.1660 ca         1 06V      -0.014300
     16 CAP         -0.8530    -1.3440     0.6990 ca         1 06V      -0.251000
     17 CAQ         -1.8060    -1.9850    -0.0760 ca         1 06V       0.168100
     18 CAR         -3.0120    -1.3530    -0.3880 ca         1 06V      -0.232000
     19 CAS         -3.2930    -0.0760     0.0910 ca         1 06V       0.196600
     20 CAT         -2.3160     0.5670     0.8740 ca         1 06V      -0.204000
     21 NAU         -4.5080     0.5510    -0.1610 nh         1 06V      -0.650000
     22 CAV         -4.4860     1.9600    -0.5290 c6         1 06V       0.161800
     23 CAW         -5.8720     2.5610    -0.4060 c6         1 06V       0.123400
     24 OAX         -6.8180     1.8530    -1.1730 os         1 06V      -0.396600
     25 CAY         -6.8660     0.5080    -0.7610 c6         1 06V       0.123400
     26 CAZ          4.6960     2.8770     1.5010 c3         1 06V      -0.084100
     27 OBA         -1.6500    -3.2190    -0.5960 os         1 06V      -0.320900
     28 CBB         -0.4320    -3.8910    -0.3730 c3         1 06V       0.122700
     29 HAAA        -5.6280    -1.1850    -0.4790 h1         1 06V       0.048700
     30 HNAH         6.6870    -1.2770    -2.8100 hn         1 06V       0.438300
     31 HNAA         7.6450    -0.4600    -1.6530 hn         1 06V       0.438300
     32 HAI          4.2470     1.0540     2.5580 hc         1 06V       0.061200
     33 HAIA         5.9480     1.2440     2.1430 hc         1 06V       0.061200
     34 HNAJ         2.1850    -1.3980    -2.4540 hn         1 06V       0.436300
     35 HNAB         1.3700    -0.7060    -1.1250 hn         1 06V       0.436300
     36 HAM         -0.3760     1.7020     2.1110 hc         1 06V       0.064700
     37 HAN          0.1800    -0.9830     3.4600 hc         1 06V       0.042033
     38 HANA         0.6220     0.6060     4.0910 hc         1 06V       0.042033
     39 HANB        -1.0800     0.1720     3.9090 hc         1 06V       0.042033
     40 HAP          0.0870    -1.8140     0.9570 ha         1 06V       0.146000
     41 HAR         -3.7040    -1.8850    -1.0260 ha         1 06V       0.145000
     42 HAT         -2.4990     1.5530     1.2790 ha         1 06V       0.134000
     43 HAV         -3.8250     2.5220     0.1250 h1         1 06V       0.048700
     44 HAVA        -4.1130     2.0900    -1.5550 h1         1 06V       0.048700
     45 HAW         -6.1670     2.5780     0.6520 h1         1 06V       0.053200
     46 HAWA        -5.8540     3.5900    -0.7660 h1         1 06V       0.053200
     47 HAY         -7.5990    -0.0040    -1.3850 h1         1 06V       0.053200
     48 HAYA        -7.2050     0.4370     0.2820 h1         1 06V       0.053200
     49 HAZ          5.3690     3.2420     0.7250 hc         1 06V       0.038033
     50 HAZA         3.6720     3.0620     1.1750 hc         1 06V       0.038033
     51 HAZB         4.8720     3.4660     2.4000 hc         1 06V       0.038033
     52 HBB         -0.5030    -4.8420    -0.8970 h1         1 06V       0.042033
     53 HBBA         0.4250    -3.3360    -0.7660 h1         1 06V       0.042033
     54 HBBB        -0.2600    -4.0900     0.6890 h1         1 06V       0.042033
     55 HAA         -5.2590    -0.2910    -1.9570 h1         1 06V       0.048700
@<TRIPOS>BOND
     1     1     2 ar  
     2     1     6 ar  
     3     2     3 ar  
     4     2     8 1   
     5     3     4 ar  
     6     4     5 ar  
     7     4     9 1   
     8     5     6 ar  
     9     5    11 1   
    10     6    10 1   
    11     7    21 1   
    12     7    25 1   
    13     7    29 1   
    14     7    55 1   
    15     8    30 1   
    16     8    31 1   
    17     9    26 1   
    18     9    32 1   
    19     9    33 1   
    20    10    34 1   
    21    10    35 1   
    22    11    12 3   
    23    12    13 1   
    24    13    14 1   
    25    13    15 1   
    26    13    36 1   
    27    14    37 1   
    28    14    38 1   
    29    14    39 1   
    30    15    16 ar  
    31    15    20 ar  
    32    16    17 ar  
    33    16    40 1   
    34    17    18 ar  
    35    17    27 1   
    36    18    19 ar  
    37    18    41 1   
    38    19    20 ar  
    39    19    21 1   
    40    20    42 1   
    41    21    22 1   
    42    22    23 1   
    43    22    43 1   
    44    22    44 1   
    45    23    24 1   
    46    23    45 1   
    47    23    46 1   
    48    24    25 1   
    49    25    47 1   
    50    25    48 1   
    51    26    49 1   
    52    26    50 1   
    53    26    51 1   
    54    27    28 1   
    55    28    52 1   
    56    28    53 1   
    57    28    54 1   
@<TRIPOS>SUBSTRUCTURE
     1 06V         1 TEMP              0 ****  ****    0 ROOT
