@<TRIPOS>MOLECULE
06W
   51    53     1     0     0
SMALL
bcc


@<TRIPOS>ATOM
      1 N1          -4.7290    -1.5180    -1.4260 nb         1 06W      -0.868000
      2 C2          -5.8520    -0.8760    -1.1050 ca         1 06W       0.958900
      3 N3          -5.9430     0.2740    -0.4250 nb         1 06W      -0.820000
      4 C4          -4.8030     0.8250    -0.0290 ca         1 06W       0.551600
      5 C5          -3.5640     0.2490    -0.3020 ca         1 06W      -0.354600
      6 C6          -3.5870    -0.9710    -1.0290 ca         1 06W       0.771200
      7 CAA          5.8950    -0.1360     0.0300 ca         1 06W      -0.239300
      8 NAH         -7.0080    -1.4460    -1.4840 nv         1 06W      -0.958500
      9 CAI         -4.9020     2.0870     0.7730 c3         1 06W      -0.136700
     10 NAJ         -2.4500    -1.6200    -1.3180 nv         1 06W      -0.958500
     11 CAK         -2.3330     0.8020     0.1250 cg         1 06W      -0.073000
     12 CAL         -1.2470     1.2180     0.4510 c1         1 06W      -0.168100
     13 CAM          0.0600     1.6730     0.9140 c3         1 06W       0.079700
     14 CAN          0.0110     2.0500     2.4020 c3         1 06W      -0.082100
     15 CAO          1.1250     0.6220     0.6620 ca         1 06W      -0.042300
     16 CAP          0.8730    -0.7180     0.9020 ca         1 06W      -0.152000
     17 CAQ          1.8780    -1.6690     0.7230 ca         1 06W       0.139100
     18 CAR          3.1410    -1.2700     0.2970 ca         1 06W      -0.204000
     19 CAS          3.3980     0.0800     0.0540 cp         1 06W      -0.006000
     20 CAT          2.3890     1.0190     0.2380 ca         1 06W      -0.148000
     21 CAU          4.7360     0.5050    -0.4030 cp         1 06W       0.006000
     22 CAV          4.8970     1.5680    -1.2900 ca         1 06W      -0.239300
     23 CAW          6.1730     1.9290    -1.6910 ca         1 06W       0.398700
     24 NAX          7.2770     1.3150    -1.2800 nb         1 06W      -0.662000
     25 CAY          7.1250     0.3020    -0.4330 ca         1 06W       0.398700
     26 CAZ         -4.8170     1.8040     2.2730 c3         1 06W      -0.084100
     27 OBA          1.5360    -2.9440     0.9760 os         1 06W      -0.317900
     28 CBB          2.5240    -3.9500     0.8550 c3         1 06W       0.124700
     29 HNAH        -6.9970    -2.2390    -2.1010 hn         1 06W       0.444800
     30 HNAA        -7.8680    -0.9370    -1.3810 hn         1 06W       0.444800
     31 HAI         -4.1040     2.7760     0.4890 hc         1 06W       0.060200
     32 HAIA        -5.8530     2.5700     0.5420 hc         1 06W       0.060200
     33 HNAJ        -1.5580    -1.1790    -1.1740 hn         1 06W       0.443800
     34 HNAB        -2.4820    -2.4150    -1.9330 hn         1 06W       0.443800
     35 HAM          0.3380     2.5690     0.3490 hc         1 06W       0.065700
     36 HAN         -0.7220     2.8370     2.5750 hc         1 06W       0.043033
     37 HANA        -0.2630     1.1880     3.0100 hc         1 06W       0.043033
     38 HANB         0.9860     2.4100     2.7310 hc         1 06W       0.043033
     39 HAP         -0.1080    -1.0430     1.2320 ha         1 06W       0.156000
     40 HAR          3.9230    -1.9980     0.1250 ha         1 06W       0.138000
     41 HAT          2.5870     2.0710     0.0720 ha         1 06W       0.136000
     42 HAV          4.0450     2.1040    -1.6850 ha         1 06W       0.142000
     43 HAW          6.3050     2.7520    -2.3850 h4         1 06W       0.018600
     44 HAY          8.0310    -0.1910    -0.0990 h4         1 06W       0.018600
     45 HAZ         -4.9440     2.7250     2.8420 hc         1 06W       0.038033
     46 HAZA        -5.5960     1.1080     2.5870 hc         1 06W       0.038033
     47 HAZB        -3.8510     1.3760     2.5410 hc         1 06W       0.038033
     48 HBB          3.3660    -3.7760     1.5300 h1         1 06W       0.041700
     49 HBBA         2.0450    -4.8870     1.1250 h1         1 06W       0.041700
     50 HBBB         2.9010    -4.0320    -0.1680 h1         1 06W       0.041700
     51 HAA          5.8550    -0.9540     0.7370 ha         1 06W       0.142000
@<TRIPOS>BOND
     1     1     2 ar  
     2     1     6 ar  
     3     2     3 ar  
     4     2     8 1   
     5     3     4 ar  
     6     4     5 ar  
     7     4     9 1   
     8     5     6 ar  
     9     5    11 1   
    10     6    10 1   
    11     7    21 ar  
    12     7    25 ar  
    13     7    51 1   
    14     8    29 1   
    15     8    30 1   
    16     9    26 1   
    17     9    31 1   
    18     9    32 1   
    19    10    33 1   
    20    10    34 1   
    21    11    12 3   
    22    12    13 1   
    23    13    14 1   
    24    13    15 1   
    25    13    35 1   
    26    14    36 1   
    27    14    37 1   
    28    14    38 1   
    29    15    16 ar  
    30    15    20 ar  
    31    16    17 ar  
    32    16    39 1   
    33    17    18 ar  
    34    17    27 1   
    35    18    19 ar  
    36    18    40 1   
    37    19    20 ar  
    38    19    21 1   
    39    20    41 1   
    40    21    22 ar  
    41    22    23 ar  
    42    22    42 1   
    43    23    24 ar  
    44    23    43 1   
    45    24    25 ar  
    46    25    44 1   
    47    26    45 1   
    48    26    46 1   
    49    26    47 1   
    50    27    28 1   
    51    28    48 1   
    52    28    49 1   
    53    28    50 1   
@<TRIPOS>SUBSTRUCTURE
     1 06W         1 TEMP              0 ****  ****    0 ROOT
