@<TRIPOS>MOLECULE
06W
   51    53     1     0     0
SMALL
No Charge or Current Charge


@<TRIPOS>ATOM
      1 N1          -5.5120     0.7870    -2.0400 nb         1 06W      -0.342000
      2 C2          -5.7940    -0.3410    -1.3850 ca         1 06W       0.432900
      3 N3          -5.0760    -0.9410    -0.4310 nb         1 06W      -0.294000
      4 C4          -3.9190    -0.3410    -0.0830 ca         1 06W       0.223300
      5 C5          -3.5070     0.8610    -0.7080 ca         1 06W      -0.224000
      6 C6          -4.3650     1.3790    -1.6980 ca         1 06W       0.442900
      7 CAA          5.4140    -0.8370     0.2160 ca         1 06W      -0.156000
      8 NAH         -6.9530    -0.9440    -1.7260 nv         1 06W      -1.068900
      9 CAI         -3.1090    -1.0390     1.0140 c3         1 06W      -0.136700
     10 NAJ         -4.1010     2.5230    -2.3810 nv         1 06W      -1.068900
     11 CAK         -2.2700     1.5060    -0.3500 cg         1 06W      -0.073000
     12 CAL         -1.2130     2.0050    -0.0250 c1         1 06W      -0.168100
     13 CAM          0.0930     2.5210     0.4090 c3         1 06W       0.079700
     14 CAN         -0.0580     3.5500     1.5510 c3         1 06W      -0.082100
     15 CAO          0.9920     1.3450     0.8040 ca         1 06W      -0.042300
     16 CAP          0.6510     0.5070     1.8860 ca         1 06W      -0.134000
     17 CAQ          1.4600    -0.5840     2.2310 ca         1 06W       0.139100
     18 CAR          2.6340    -0.8440     1.4930 ca         1 06W      -0.186000
     19 CAS          3.0060    -0.0210     0.4020 cp         1 06W      -0.006000
     20 CAT          2.1640     1.0710     0.0740 ca         1 06W      -0.130000
     21 CAU          4.2510    -0.2990    -0.3850 cp         1 06W       0.006000
     22 CAV          4.3330    -0.0390    -1.7740 ca         1 06W      -0.156000
     23 CAW          5.5180    -0.3150    -2.4750 ca         1 06W       0.333400
     24 NAX          6.6210    -0.8290    -1.8840 nb         1 06W      -0.662000
     25 CAY          6.5600    -1.0820    -0.5570 ca         1 06W       0.333400
     26 CAZ         -1.9270    -1.8640     0.4620 c3         1 06W      -0.084100
     27 OBA          1.0580    -1.3700     3.2930 os         1 06W      -0.341100
     28 CBB          1.8010    -2.5260     3.7190 c3         1 06W       0.147900
     29 HNAH        -7.6300    -0.4050    -2.2620 hn         1 06W       0.500000
     30 HNAA        -7.3270    -1.6550    -1.1040 hn         1 06W       0.500000
     31 HAI         -2.7280    -0.3030     1.7310 hc         1 06W       0.060200
     32 HAIA        -3.7570    -1.7070     1.5950 hc         1 06W       0.060200
     33 HNAJ        -3.3730     3.1320    -2.0180 hn         1 06W       0.499000
     34 HNAB        -4.8620     2.9680    -2.8880 hn         1 06W       0.499000
     35 HAM          0.5330     3.0470    -0.4470 hc         1 06W       0.065700
     36 HAN         -0.6530     4.4100     1.2210 hc         1 06W       0.043033
     37 HANA        -0.5500     3.1090     2.4260 hc         1 06W       0.043033
     38 HANB         0.9260     3.9200     1.8620 hc         1 06W       0.043033
     39 HAP         -0.2550     0.6920     2.4560 ha         1 06W       0.138000
     40 HAR          3.2610    -1.6940     1.7420 ha         1 06W       0.120000
     41 HAT          2.4340     1.7210    -0.7550 ha         1 06W       0.118000
     42 HAV          3.4820     0.3600    -2.3170 ha         1 06W       0.124000
     43 HAW          5.5870    -0.1220    -3.5450 h4         1 06W       0.018600
     44 HAY          7.4600    -1.4910    -0.1000 h4         1 06W       0.018600
     45 HAZ         -1.3840    -2.3500     1.2820 hc         1 06W       0.038033
     46 HAZA        -2.2860    -2.6420    -0.2220 hc         1 06W       0.038033
     47 HAZB        -1.2200    -1.2260    -0.0810 hc         1 06W       0.038033
     48 HBB          2.8160    -2.2450     4.0290 h1         1 06W       0.041700
     49 HBBA         1.3050    -3.0020     4.5740 h1         1 06W       0.041700
     50 HBBB         1.8700    -3.2650     2.9110 h1         1 06W       0.041700
     51 HAA          5.4410    -1.0520     1.2800 ha         1 06W       0.124000
@<TRIPOS>BOND
     1     1     2 ar  
     2     1     6 ar  
     3     2     3 ar  
     4     2     8 1   
     5     3     4 ar  
     6     4     5 ar  
     7     4     9 1   
     8     5     6 ar  
     9     5    11 1   
    10     6    10 1   
    11     7    21 ar  
    12     7    25 ar  
    13     7    51 1   
    14     8    29 1   
    15     8    30 1   
    16     9    26 1   
    17     9    31 1   
    18     9    32 1   
    19    10    33 1   
    20    10    34 1   
    21    11    12 3   
    22    12    13 1   
    23    13    14 1   
    24    13    15 1   
    25    13    35 1   
    26    14    36 1   
    27    14    37 1   
    28    14    38 1   
    29    15    16 ar  
    30    15    20 ar  
    31    16    17 ar  
    32    16    39 1   
    33    17    18 ar  
    34    17    27 1   
    35    18    19 ar  
    36    18    40 1   
    37    19    20 ar  
    38    19    21 1   
    39    20    41 1   
    40    21    22 ar  
    41    22    23 ar  
    42    22    42 1   
    43    23    24 ar  
    44    23    43 1   
    45    24    25 ar  
    46    25    44 1   
    47    26    45 1   
    48    26    46 1   
    49    26    47 1   
    50    27    28 1   
    51    28    48 1   
    52    28    49 1   
    53    28    50 1   
@<TRIPOS>SUBSTRUCTURE
     1 06W         1 TEMP              0 ****  ****    0 ROOT
