@<TRIPOS>MOLECULE
06X
   53    54     1     0     0
SMALL
No Charge or Current Charge


@<TRIPOS>ATOM
      1 ClAG        -3.1260    -2.6220     0.0580 cl         1 06X      -0.187000
      2 CAZ         -2.2810    -1.7660    -1.2370 ca         1 06X       0.153000
      3 CAJ         -2.4840    -2.2240    -2.5510 ca         1 06X      -0.114000
      4 CAH         -1.8460    -1.5970    -3.6320 ca         1 06X      -0.103000
      5 CAI         -0.9980    -0.5050    -3.4010 ca         1 06X      -0.120000
      6 CAK         -0.7890    -0.0410    -2.0930 ca         1 06X      -0.093000
      7 CBA         -1.4240    -0.6590    -0.9930 ca         1 06X      -0.070300
      8 CBB         -1.1500    -0.1000     0.4210 c6         1 06X       0.119000
      9 CAY          0.3560    -0.2490     0.7430 ce         1 06X      -0.221400
     10 CAV          0.8030    -1.6790     0.9500 c          1 06X       0.613300
     11 OAF          0.0340    -2.6300     0.9610 o          1 06X      -0.477000
     12 OAS          2.1510    -1.8240     1.1250 os         1 06X      -0.451100
     13 CAL          2.6800    -3.1460     1.3130 c3         1 06X       0.166600
     14 CAA          4.2060    -3.0150     1.4400 c3         1 06X      -0.096100
     15 CAX         -1.6620     1.3590     0.4970 ce         1 06X      -0.271400
     16 CAU         -3.1670     1.4920     0.4900 c          1 06X       0.613300
     17 OAE         -3.9280     0.5350     0.4760 o          1 06X      -0.486000
     18 OAQ         -3.6120     2.7860     0.5320 os         1 06X      -0.455100
     19 CAB         -5.0320     3.0220     0.5400 c3         1 06X       0.155900
     20 CAT         -0.7830     2.3930     0.5350 c2         1 06X       0.199800
     21 CAC         -1.0500     3.8910     0.5400 c3         1 06X      -0.063900
     22 NAP          0.5720     2.0980     0.5950 nu         1 06X      -0.687000
     23 CAW          1.1630     0.8480     0.7860 c2         1 06X       0.170800
     24 CAO          2.6760     0.9440     1.0340 c3         1 06X       0.190800
     25 OAR          3.3740     0.6570    -0.1950 os         1 06X      -0.464000
     26 CAN          4.8110     0.6460    -0.0750 c3         1 06X       0.157600
     27 CAM          5.4220     0.2750    -1.4540 c3         1 06X       0.150800
     28 NAD          5.0800     1.2410    -2.5300 n8         1 06X      -0.999200
     29 H1          -3.1410    -3.0720    -2.7300 ha         1 06X       0.125000
     30 H2          -2.0090    -1.9580    -4.6460 ha         1 06X       0.112000
     31 H3          -0.5010    -0.0160    -4.2370 ha         1 06X       0.111000
     32 H4          -0.1270     0.8070    -1.9320 ha         1 06X       0.113000
     33 H5           2.2730    -3.6050     2.2240 h1         1 06X       0.049700
     34 H6           2.4390    -3.7920     0.4580 h1         1 06X       0.049700
     35 H7           4.6590    -4.0000     1.6060 hc         1 06X       0.044367
     36 H8           4.6340    -2.5900     0.5250 hc         1 06X       0.044367
     37 H9           4.4700    -2.3680     2.2850 hc         1 06X       0.044367
     38 H10         -5.5020     2.6130    -0.3640 h1         1 06X       0.045700
     39 H11         -5.5010     2.5590     1.4170 h1         1 06X       0.045700
     40 H12         -5.2390     4.0990     0.5730 h1         1 06X       0.045700
     41 H13         -0.1310     4.4890     0.5400 hc         1 06X       0.060700
     42 H14         -1.6210     4.1900    -0.3470 hc         1 06X       0.060700
     43 H15         -1.6200     4.1850     1.4290 hc         1 06X       0.060700
     44 H16          2.9340     1.9530     1.3820 h1         1 06X       0.049200
     45 H17          2.9800     0.2640     1.8380 h1         1 06X       0.049200
     46 H18          5.1840     1.6300     0.2400 h1         1 06X       0.033200
     47 H19          5.1310    -0.0960     0.6680 h1         1 06X       0.033200
     48 H20          6.5160     0.2160    -1.3660 h1         1 06X       0.039700
     49 H21          5.0530    -0.7190    -1.7440 h1         1 06X       0.039700
     50 H22          5.3220     0.8310    -3.4390 hn         1 06X       0.398500
     51 H23          4.0550     1.3190    -2.5620 hn         1 06X       0.398500
     52 H25         -1.6980    -0.6720     1.1810 hc         1 06X       0.104700
     53 H26          1.2100     2.8910     0.5140 hn         1 06X       0.510000
@<TRIPOS>BOND
     1     1     2 1   
     2     2     3 ar  
     3     2     7 ar  
     4     3     4 ar  
     5     3    29 1   
     6     4     5 ar  
     7     4    30 1   
     8     5     6 ar  
     9     5    31 1   
    10     6     7 ar  
    11     6    32 1   
    12     7     8 1   
    13     8     9 1   
    14     8    15 1   
    15     8    52 1   
    16     9    10 1   
    17     9    23 2   
    18    10    11 2   
    19    10    12 1   
    20    12    13 1   
    21    13    14 1   
    22    13    33 1   
    23    13    34 1   
    24    14    35 1   
    25    14    36 1   
    26    14    37 1   
    27    15    16 1   
    28    15    20 2   
    29    16    17 2   
    30    16    18 1   
    31    18    19 1   
    32    19    38 1   
    33    19    39 1   
    34    19    40 1   
    35    20    21 1   
    36    20    22 1   
    37    21    41 1   
    38    21    42 1   
    39    21    43 1   
    40    22    23 1   
    41    22    53 1   
    42    23    24 1   
    43    24    25 1   
    44    24    44 1   
    45    24    45 1   
    46    25    26 1   
    47    26    27 1   
    48    26    46 1   
    49    26    47 1   
    50    27    28 1   
    51    27    48 1   
    52    27    49 1   
    53    28    50 1   
    54    28    51 1   
@<TRIPOS>SUBSTRUCTURE
     1 06X         1 TEMP              0 ****  ****    0 ROOT
