@<TRIPOS>MOLECULE
06X
   53    54     1     0     0
SMALL
abcg2


@<TRIPOS>ATOM
      1 CLAG        -3.1780    -2.5270     0.5900 cl         1 06X      -0.187000
      2 CAZ         -2.3440    -1.9760    -0.8300 ca         1 06X       0.153000
      3 CAJ         -2.5970    -2.6620    -2.0130 ca         1 06X      -0.114000
      4 CAH         -1.9660    -2.2740    -3.1830 ca         1 06X      -0.103000
      5 CAI         -1.0840    -1.2020    -3.1650 ca         1 06X      -0.120000
      6 CAK         -0.8450    -0.5320    -1.9770 ca         1 06X      -0.093000
      7 CBA         -1.4660    -0.8960    -0.7820 ca         1 06X      -0.070300
      8 CBB         -1.1280    -0.1190     0.4820 c6         1 06X       0.119000
      9 CAY          0.3310    -0.3470     0.8210 ce         1 06X      -0.221400
     10 CAV          0.6320    -1.7190     1.2800 c          1 06X       0.613300
     11 OAF         -0.1380    -2.3690     1.9470 o          1 06X      -0.477000
     12 OAS          1.7900    -2.1930     0.8410 os         1 06X      -0.451100
     13 CAL          2.1850    -3.5080     1.2630 c3         1 06X       0.166600
     14 CAA          3.5530    -3.7830     0.6880 c3         1 06X      -0.096100
     15 CAX         -1.4500     1.3530     0.3220 ce         1 06X      -0.271400
     16 CAU         -2.8810     1.6390     0.3290 c          1 06X       0.613300
     17 OAE         -3.7200     0.7630     0.3850 o          1 06X      -0.486000
     18 OAQ         -3.2060     2.9290     0.2920 os         1 06X      -0.455100
     19 CAB         -4.5920     3.2560     0.2850 c3         1 06X       0.155900
     20 CAT         -0.4650     2.2730     0.1470 c2         1 06X       0.199800
     21 CAC         -0.6140     3.7370    -0.1420 c3         1 06X      -0.063900
     22 NAP          0.8370     1.8780     0.2530 nu         1 06X      -0.687000
     23 CAW          1.2390     0.6320     0.6780 c2         1 06X       0.170800
     24 CAO          2.7010     0.6000     1.0260 c3         1 06X       0.190800
     25 OAR          3.4200     0.9260    -0.1370 os         1 06X      -0.464000
     26 CAN          4.7950     1.1450     0.1050 c3         1 06X       0.157600
     27 CAM          5.4480     1.5940    -1.1820 c3         1 06X       0.150800
     28 NAD          4.9240     2.8770    -1.6200 n8         1 06X      -0.999200
     29 H1          -3.2860    -3.4950    -2.0160 ha         1 06X       0.125000
     30 H2          -2.1640    -2.8100    -4.1010 ha         1 06X       0.112000
     31 H3          -0.5820    -0.8900    -4.0720 ha         1 06X       0.111000
     32 H4          -0.1530     0.3020    -1.9740 ha         1 06X       0.113000
     33 H5           2.2030    -3.5580     2.3530 h1         1 06X       0.049700
     34 H6           1.4570    -4.2390     0.9050 h1         1 06X       0.049700
     35 H7           3.8710    -4.7820     0.9850 hc         1 06X       0.044367
     36 H8           3.5460    -3.7460    -0.4020 hc         1 06X       0.044367
     37 H9           4.2940    -3.0740     1.0560 hc         1 06X       0.044367
     38 H10         -5.1030     2.8320    -0.5800 h1         1 06X       0.045700
     39 H11         -5.0900     2.9190     1.1940 h1         1 06X       0.045700
     40 H12         -4.6410     4.3400     0.2320 h1         1 06X       0.045700
     41 H13          0.3440     4.1600    -0.4440 hc         1 06X       0.060700
     42 H14         -1.3270     3.9250    -0.9390 hc         1 06X       0.060700
     43 H15         -0.9480     4.2800     0.7410 hc         1 06X       0.060700
     44 H16          2.8720     1.3520     1.8100 h1         1 06X       0.049200
     45 H17          3.0070    -0.3620     1.4350 h1         1 06X       0.049200
     46 H18          4.9290     1.9140     0.8780 h1         1 06X       0.033200
     47 H19          5.2760     0.2270     0.4650 h1         1 06X       0.033200
     48 H20          6.5160     1.7030    -0.9790 h1         1 06X       0.039700
     49 H21          5.3540     0.7920    -1.9280 h1         1 06X       0.039700
     50 H22          5.4300     3.1820    -2.4420 hn         1 06X       0.398500
     51 H23          3.9630     2.7650    -1.9180 hn         1 06X       0.398500
     52 H25         -1.7330    -0.5200     1.2960 hc         1 06X       0.104700
     53 H26          1.5510     2.5780     0.1310 hn         1 06X       0.510000
@<TRIPOS>BOND
     1     1     2 1   
     2     2     3 ar  
     3     2     7 ar  
     4     3     4 ar  
     5     3    29 1   
     6     4     5 ar  
     7     4    30 1   
     8     5     6 ar  
     9     5    31 1   
    10     6     7 ar  
    11     6    32 1   
    12     7     8 1   
    13     8     9 1   
    14     8    15 1   
    15     8    52 1   
    16     9    10 1   
    17     9    23 2   
    18    10    11 2   
    19    10    12 1   
    20    12    13 1   
    21    13    14 1   
    22    13    33 1   
    23    13    34 1   
    24    14    35 1   
    25    14    36 1   
    26    14    37 1   
    27    15    16 1   
    28    15    20 2   
    29    16    17 2   
    30    16    18 1   
    31    18    19 1   
    32    19    38 1   
    33    19    39 1   
    34    19    40 1   
    35    20    21 1   
    36    20    22 1   
    37    21    41 1   
    38    21    42 1   
    39    21    43 1   
    40    22    23 1   
    41    22    53 1   
    42    23    24 1   
    43    24    25 1   
    44    24    44 1   
    45    24    45 1   
    46    25    26 1   
    47    26    27 1   
    48    26    46 1   
    49    26    47 1   
    50    27    28 1   
    51    27    48 1   
    52    27    49 1   
    53    28    50 1   
    54    28    51 1   
@<TRIPOS>SUBSTRUCTURE
     1 06X         1 TEMP              0 ****  ****    0 ROOT
