@<TRIPOS>MOLECULE
06Y
   18    18     1     0     0
SMALL
No Charge or Current Charge


@<TRIPOS>ATOM
      1 C1           2.9340     0.0730     0.0190 c          1 06Y       0.729000
      2 O1           3.0880     1.2890     0.0290 o          1 06Y      -0.713500
      3 C2           1.4930    -0.5200     0.0110 c3         1 06Y       0.002600
      4 O2           0.4570     0.4930     0.0160 os         1 06Y      -0.296100
      5 C3          -0.8860     0.1730     0.0110 ca         1 06Y       0.173100
      6 C4          -1.8130     1.2290     0.0170 ca         1 06Y      -0.192000
      7 C5          -3.1930     0.9650     0.0120 ca         1 06Y      -0.081500
      8 C6          -3.6510    -0.3620     0.0000 ca         1 06Y      -0.188000
      9 C7          -2.7320    -1.4250    -0.0060 ca         1 06Y      -0.081500
     10 C8          -1.3510    -1.1610    -0.0010 ca         1 06Y      -0.192000
     11 H30          1.3990    -1.1500    -0.8840 h1         1 06Y       0.016700
     12 H31          1.3950    -1.1640     0.8940 h1         1 06Y       0.016700
     13 H32         -1.4580     2.2570     0.0260 ha         1 06Y       0.122000
     14 H33         -3.9060     1.7880     0.0170 ha         1 06Y       0.092000
     15 H34         -4.7190    -0.5680    -0.0040 ha         1 06Y       0.093000
     16 H35         -3.0890    -2.4520    -0.0150 ha         1 06Y       0.092000
     17 H36         -0.6590    -1.9980    -0.0060 ha         1 06Y       0.122000
     18 OXT          3.8700    -0.7160     0.0140 o          1 06Y      -0.713500
@<TRIPOS>BOND
     1     1     2 1   
     2     1     3 1   
     3     1    18 1   
     4     3     4 1   
     5     3    11 1   
     6     3    12 1   
     7     4     5 1   
     8     5     6 ar  
     9     5    10 ar  
    10     6     7 ar  
    11     6    13 1   
    12     7     8 ar  
    13     7    14 1   
    14     8     9 ar  
    15     8    15 1   
    16     9    10 ar  
    17     9    16 1   
    18    10    17 1   
@<TRIPOS>SUBSTRUCTURE
     1 06Y         1 TEMP              0 ****  ****    0 ROOT
