@<TRIPOS>MOLECULE
06Y
   18    18     1     0     0
SMALL
abcg2


@<TRIPOS>ATOM
      1 C1           2.8460     0.0970     0.0220 c          1 06Y       0.729000
      2 O1           2.9590     1.3310     0.0330 o          1 06Y      -0.713500
      3 C2           1.4330    -0.5100     0.0080 c3         1 06Y       0.002600
      4 O2           0.4500     0.5060     0.0120 os         1 06Y      -0.296100
      5 C3          -0.8480     0.1570     0.0080 ca         1 06Y       0.173100
      6 C4          -1.7710     1.2080     0.0150 ca         1 06Y      -0.192000
      7 C5          -3.1290     0.9460     0.0130 ca         1 06Y      -0.081500
      8 C6          -3.6000    -0.3640     0.0030 ca         1 06Y      -0.188000
      9 C7          -2.6850    -1.4040    -0.0050 ca         1 06Y      -0.081500
     10 C8          -1.3150    -1.1570    -0.0020 ca         1 06Y      -0.192000
     11 H30          1.3300    -1.1470    -0.8790 h1         1 06Y       0.016700
     12 H31          1.3190    -1.1640     0.8820 h1         1 06Y       0.016700
     13 H32         -1.4100     2.2290     0.0230 ha         1 06Y       0.122000
     14 H33         -3.8270     1.7730     0.0180 ha         1 06Y       0.092000
     15 H34         -4.6630    -0.5650     0.0010 ha         1 06Y       0.093000
     16 H35         -3.0300    -2.4310    -0.0120 ha         1 06Y       0.092000
     17 H36         -0.6340    -1.9970    -0.0090 ha         1 06Y       0.122000
     18 OXT          3.7530    -0.7580     0.0190 o          1 06Y      -0.713500
@<TRIPOS>BOND
     1     1     2 1   
     2     1     3 1   
     3     1    18 1   
     4     3     4 1   
     5     3    11 1   
     6     3    12 1   
     7     4     5 1   
     8     5     6 ar  
     9     5    10 ar  
    10     6     7 ar  
    11     6    13 1   
    12     7     8 ar  
    13     7    14 1   
    14     8     9 ar  
    15     8    15 1   
    16     9    10 ar  
    17     9    16 1   
    18    10    17 1   
@<TRIPOS>SUBSTRUCTURE
     1 06Y         1 TEMP              0 ****  ****    0 ROOT
