@<TRIPOS>MOLECULE
06Z
   34    36     1     0     0
SMALL
No Charge or Current Charge


@<TRIPOS>ATOM
      1 F            6.5250     1.8770    -0.1040 f          1 06Z      -0.177000
      2 N1           0.7530    -1.2800    -0.3970 nc         1 06Z      -0.801000
      3 C2          -0.5150    -1.6740    -0.5580 cc         1 06Z       0.692900
      4 N3          -0.5790    -2.9450    -0.8790 nv         1 06Z      -1.048900
      5 C4          -1.5230    -0.7900    -0.3550 cd         1 06Z      -0.466600
      6 C5          -2.9570    -1.1440    -0.3620 c          1 06Z       0.646300
      7 C6          -3.9670    -0.0410    -0.1670 ca         1 06Z      -0.150600
      8 C7          -5.0260    -0.2170     0.7490 ca         1 06Z      -0.075000
      9 C8          -5.9850     0.7950     0.9310 ca         1 06Z      -0.119000
     10 C9          -5.9010     1.9870     0.1910 ca         1 06Z      -0.096000
     11 C10         -4.8610     2.1630    -0.7360 ca         1 06Z      -0.119000
     12 C11         -3.9000     1.1520    -0.9190 ca         1 06Z      -0.075000
     13 O12         -3.3330    -2.3010    -0.5090 o          1 06Z      -0.594100
     14 S13         -0.8290     0.7740     0.0570 ss         1 06Z      -0.070400
     15 C14          0.7440    -0.0190    -0.0410 cd         1 06Z       0.764300
     16 C16          3.2550     0.2650     0.2360 ca         1 06Z       0.328000
     17 C17          4.2330     1.2460     0.0110 ca         1 06Z      -0.216000
     18 C18          5.5930     0.9260     0.1230 ca         1 06Z       0.201000
     19 C19          5.9940    -0.3720     0.4680 ca         1 06Z      -0.175000
     20 C20          5.0240    -1.3570     0.7110 ca         1 06Z      -0.060000
     21 C21          3.6590    -1.0360     0.5980 ca         1 06Z      -0.144000
     22 HN3          0.2440    -3.4740    -0.6260 hn         1 06Z       0.518000
     23 HN3A        -1.4790    -3.3840    -0.7120 hn         1 06Z       0.518000
     24 H7          -5.1020    -1.1370     1.3250 ha         1 06Z       0.123000
     25 H8          -6.7940     0.6550     1.6440 ha         1 06Z       0.114500
     26 H9          -6.6440     2.7690     0.3320 ha         1 06Z       0.112000
     27 H10         -4.8000     3.0800    -1.3170 ha         1 06Z       0.114500
     28 H11         -3.1110     1.2940    -1.6550 ha         1 06Z       0.123000
     29 HN15         1.7660     1.6480     0.1280 hn         1 06Z       0.510000
     30 H17          3.9460     2.2570    -0.2580 ha         1 06Z       0.129000
     31 H19          7.0510    -0.6090     0.5540 ha         1 06Z       0.136000
     32 H20          5.3260    -2.3650     0.9900 ha         1 06Z       0.120000
     33 H21          2.9230    -1.8030     0.8090 ha         1 06Z       0.156000
     34 N15          1.9170     0.6440     0.1260 nu         1 06Z      -0.916900
@<TRIPOS>BOND
     1     1    18 1   
     2     2     3 1   
     3     2    15 2   
     4     3     4 1   
     5     3     5 2   
     6     4    22 1   
     7     4    23 1   
     8     5     6 1   
     9     5    14 1   
    10     6     7 1   
    11     6    13 2   
    12     7     8 ar  
    13     7    12 ar  
    14     8     9 ar  
    15     8    24 1   
    16     9    10 ar  
    17     9    25 1   
    18    10    11 ar  
    19    10    26 1   
    20    11    12 ar  
    21    11    27 1   
    22    12    28 1   
    23    14    15 1   
    24    15    34 1   
    25    16    17 ar  
    26    16    21 ar  
    27    16    34 1   
    28    17    18 ar  
    29    17    30 1   
    30    18    19 ar  
    31    19    20 ar  
    32    19    31 1   
    33    20    21 ar  
    34    20    32 1   
    35    21    33 1   
    36    29    34 1   
@<TRIPOS>SUBSTRUCTURE
     1 06Z         1 TEMP              0 ****  ****    0 ROOT
