@<TRIPOS>MOLECULE
06Z
   34    36     1     0     0
SMALL
abcg2


@<TRIPOS>ATOM
      1 F            6.3270     2.0370     0.6070 f          1 06Z      -0.177000
      2 N1           0.7450    -1.3910    -0.1080 nc         1 06Z      -0.801000
      3 C2          -0.5210    -1.8650    -0.2270 cc         1 06Z       0.692900
      4 N3          -0.7000    -3.1710    -0.3970 nv         1 06Z      -1.048900
      5 C4          -1.5430    -0.9060    -0.1600 cd         1 06Z      -0.466600
      6 C5          -2.9390    -1.1710    -0.1900 c          1 06Z       0.646300
      7 C6          -3.8920    -0.0230    -0.1310 ca         1 06Z      -0.150600
      8 C7          -4.9730    -0.0910     0.7460 ca         1 06Z      -0.075000
      9 C8          -5.8900     0.9470     0.8070 ca         1 06Z      -0.119000
     10 C9          -5.7520     2.0490    -0.0290 ca         1 06Z      -0.096000
     11 C10         -4.6930     2.1100    -0.9240 ca         1 06Z      -0.119000
     12 C11         -3.7620     1.0810    -0.9710 ca         1 06Z      -0.075000
     13 O12         -3.3870    -2.3220    -0.2390 o          1 06Z      -0.594100
     14 S13         -0.8070     0.6680     0.0980 ss         1 06Z      -0.070400
     15 C14          0.7500    -0.1010     0.0680 cd         1 06Z       0.764300
     16 C16          3.1940     0.2870     0.2230 ca         1 06Z       0.328000
     17 C17          4.1140     1.3230     0.4110 ca         1 06Z      -0.216000
     18 C18          5.4590     1.0290     0.4250 ca         1 06Z       0.201000
     19 C19          5.9470    -0.2540     0.2610 ca         1 06Z      -0.175000
     20 C20          5.0190    -1.2670     0.0760 ca         1 06Z      -0.060000
     21 C21          3.6540    -1.0200     0.0540 ca         1 06Z      -0.144000
     22 HN3          0.0930    -3.7880    -0.4250 hn         1 06Z       0.518000
     23 HN3A        -1.6310    -3.5480    -0.4510 hn         1 06Z       0.518000
     24 H7          -5.0890    -0.9510     1.3940 ha         1 06Z       0.123000
     25 H8          -6.7160     0.8950     1.5030 ha         1 06Z       0.114500
     26 H9          -6.4730     2.8550     0.0130 ha         1 06Z       0.112000
     27 H10         -4.5920     2.9560    -1.5910 ha         1 06Z       0.114500
     28 H11         -2.9540     1.1300    -1.6900 ha         1 06Z       0.123000
     29 HN15         1.6880     1.6480     0.3420 hn         1 06Z       0.510000
     30 H17          3.7830     2.3460     0.5450 ha         1 06Z       0.129000
     31 H19          7.0100    -0.4510     0.2760 ha         1 06Z       0.136000
     32 H20          5.3660    -2.2830    -0.0560 ha         1 06Z       0.120000
     33 H21          2.9620    -1.8320    -0.0900 ha         1 06Z       0.156000
     34 N15          1.8490     0.6600     0.2170 nu         1 06Z      -0.916900
@<TRIPOS>BOND
     1     1    18 1   
     2     2     3 1   
     3     2    15 2   
     4     3     4 1   
     5     3     5 2   
     6     4    22 1   
     7     4    23 1   
     8     5     6 1   
     9     5    14 1   
    10     6     7 1   
    11     6    13 2   
    12     7     8 ar  
    13     7    12 ar  
    14     8     9 ar  
    15     8    24 1   
    16     9    10 ar  
    17     9    25 1   
    18    10    11 ar  
    19    10    26 1   
    20    11    12 ar  
    21    11    27 1   
    22    12    28 1   
    23    14    15 1   
    24    15    34 1   
    25    16    17 ar  
    26    16    21 ar  
    27    16    34 1   
    28    17    18 ar  
    29    17    30 1   
    30    18    19 ar  
    31    19    20 ar  
    32    19    31 1   
    33    20    21 ar  
    34    20    32 1   
    35    21    33 1   
    36    29    34 1   
@<TRIPOS>SUBSTRUCTURE
     1 06Z         1 TEMP              0 ****  ****    0 ROOT
