@<TRIPOS>MOLECULE
070
   42    44     1     0     0
SMALL
No Charge or Current Charge


@<TRIPOS>ATOM
      1 C27         -5.3950     1.0580    -0.0640 ca         1 070      -0.099000
      2 C28         -6.6470     0.8300     0.5330 ca         1 070      -0.110500
      3 C29         -7.0760    -0.4830     0.7890 ca         1 070      -0.107000
      4 C30         -6.2520    -1.5680     0.4480 ca         1 070      -0.110500
      5 C31         -5.0000    -1.3410    -0.1490 ca         1 070      -0.099000
      6 C26         -4.5650    -0.0270    -0.4100 ca         1 070      -0.084300
      7 C25         -3.2060     0.2170    -1.0540 c3         1 070      -0.023100
      8 C24         -2.0810     0.2440    -0.0260 cx         1 070       0.105300
      9 O5          -1.3950    -1.0030     0.2270 op         1 070      -0.430000
     10 C23         -0.6530     0.0380    -0.4550 cx         1 070       0.043300
     11 C22          0.4870     0.7010     0.3260 c3         1 070       0.135300
     12 O4           0.3340     2.1370     0.3330 oh         1 070      -0.705000
     13 C14          1.9070     0.2830    -0.1960 c3         1 070       0.148500
     14 C15          3.0240     0.6140     0.8330 c3         1 070      -0.020100
     15 C16          4.3890     0.0290     0.4730 ca         1 070      -0.067300
     16 C17          4.6080    -1.3610     0.5540 ca         1 070      -0.098500
     17 C18          5.8650    -1.9030     0.2360 ca         1 070      -0.111500
     18 C19          6.9150    -1.0580    -0.1620 ca         1 070      -0.111000
     19 C20          6.7060     0.3290    -0.2410 ca         1 070      -0.111500
     20 C21          5.4480     0.8710     0.0770 ca         1 070      -0.098500
     21 N2           2.2310     0.8650    -1.5330 n8         1 070      -1.015200
     22 H1          -5.0700     2.0790    -0.2570 ha         1 070       0.113000
     23 H2          -7.2840     1.6720     0.7970 ha         1 070       0.112500
     24 H3          -8.0450    -0.6590     1.2510 ha         1 070       0.112000
     25 H4          -6.5820    -2.5860     0.6480 ha         1 070       0.112500
     26 H5          -4.3650    -2.1860    -0.4060 ha         1 070       0.113000
     27 H6          -3.0070    -0.5580    -1.8040 hc         1 070       0.058700
     28 H7          -3.2130     1.1670    -1.6010 hc         1 070       0.058700
     29 H8          -2.2710     0.8630     0.8520 h1         1 070       0.091700
     30 H9          -0.4540    -0.1540    -1.5100 h1         1 070       0.077700
     31 H10          0.4080     0.3300     1.3580 h1         1 070       0.089700
     32 H11          0.3220     2.4350    -0.6040 ho         1 070       0.495000
     33 H12          1.8860    -0.8120    -0.3070 h1         1 070       0.084700
     34 H13          3.0940     1.7020     0.9550 hc         1 070       0.051200
     35 H14          2.7250     0.2260     1.8140 hc         1 070       0.051200
     36 H15          3.8020    -2.0230     0.8660 ha         1 070       0.107500
     37 H16          6.0260    -2.9770     0.3000 ha         1 070       0.109500
     38 H17          7.8890    -1.4780    -0.4070 ha         1 070       0.110000
     39 H18          7.5180     0.9840    -0.5480 ha         1 070       0.109500
     40 H19          5.2970     1.9460     0.0130 ha         1 070       0.107500
     41 H20          1.4280     0.7780    -2.1650 hn         1 070       0.401000
     42 H21          2.3860     1.8750    -1.4390 hn         1 070       0.401000
@<TRIPOS>BOND
     1     1     2 ar  
     2     1     6 ar  
     3     1    22 1   
     4     2     3 ar  
     5     2    23 1   
     6     3     4 ar  
     7     3    24 1   
     8     4     5 ar  
     9     4    25 1   
    10     5     6 ar  
    11     5    26 1   
    12     6     7 1   
    13     7     8 1   
    14     7    27 1   
    15     7    28 1   
    16     8     9 1   
    17     8    10 1   
    18     8    29 1   
    19     9    10 1   
    20    10    11 1   
    21    10    30 1   
    22    11    12 1   
    23    11    13 1   
    24    11    31 1   
    25    12    32 1   
    26    13    14 1   
    27    13    21 1   
    28    13    33 1   
    29    14    15 1   
    30    14    34 1   
    31    14    35 1   
    32    15    16 ar  
    33    15    20 ar  
    34    16    17 ar  
    35    16    36 1   
    36    17    18 ar  
    37    17    37 1   
    38    18    19 ar  
    39    18    38 1   
    40    19    20 ar  
    41    19    39 1   
    42    20    40 1   
    43    21    41 1   
    44    21    42 1   
@<TRIPOS>SUBSTRUCTURE
     1 070         1 TEMP              0 ****  ****    0 ROOT
