@<TRIPOS>MOLECULE
070
   42    44     1     0     0
SMALL
bcc


@<TRIPOS>ATOM
      1 C27         -5.2190     0.5330     0.7220 ca         1 070      -0.117000
      2 C28         -6.1390    -0.3470     1.2780 ca         1 070      -0.128500
      3 C29         -6.1840    -1.6680     0.8530 ca         1 070      -0.125000
      4 C30         -5.3030    -2.1010    -0.1310 ca         1 070      -0.128500
      5 C31         -4.3840    -1.2190    -0.6830 ca         1 070      -0.117000
      6 C26         -4.3320     0.1090    -0.2650 ca         1 070      -0.084300
      7 C25         -3.3040     1.0480    -0.8350 c3         1 070      -0.023100
      8 C24         -2.0000     0.9490    -0.0870 cx         1 070       0.082100
      9 O5          -1.2300    -0.2240    -0.3110 op         1 070      -0.383600
     10 C23         -0.7090     1.0190    -0.7600 cx         1 070       0.020100
     11 C22          0.5300     1.5180    -0.0540 c3         1 070       0.112100
     12 O4           0.7360     2.8800    -0.3590 oh         1 070      -0.582800
     13 C14          1.7550     0.6370    -0.3590 c3         1 070       0.148500
     14 C15          2.9580     1.0780     0.4830 c3         1 070      -0.020100
     15 C16          4.0690     0.0690     0.4640 ca         1 070      -0.067300
     16 C17          4.0430    -1.0200     1.3330 ca         1 070      -0.116500
     17 C18          5.0500    -1.9760     1.3150 ca         1 070      -0.129500
     18 C19          6.1070    -1.8560     0.4220 ca         1 070      -0.129000
     19 C20          6.1470    -0.7740    -0.4480 ca         1 070      -0.129500
     20 C21          5.1340     0.1760    -0.4270 ca         1 070      -0.116500
     21 N2           2.1400     0.5680    -1.7560 n8         1 070      -0.904800
     22 H1          -5.1940     1.5640     1.0550 ha         1 070       0.131000
     23 H2          -6.8230     0.0020     2.0410 ha         1 070       0.130500
     24 H3          -6.9020    -2.3540     1.2820 ha         1 070       0.130000
     25 H4          -5.3340    -3.1280    -0.4710 ha         1 070       0.130500
     26 H5          -3.7050    -1.5660    -1.4530 ha         1 070       0.131000
     27 H6          -3.1360     0.8310    -1.8930 hc         1 070       0.058700
     28 H7          -3.6550     2.0810    -0.7710 hc         1 070       0.058700
     29 H8          -2.0470     1.2580     0.9570 h1         1 070       0.091700
     30 H9          -0.7160     1.1450    -1.8450 h1         1 070       0.077700
     31 H10          0.3520     1.4750     1.0260 h1         1 070       0.089700
     32 H11          0.9070     2.9660    -1.3040 ho         1 070       0.396000
     33 H12          1.4840    -0.3780    -0.0460 h1         1 070       0.084700
     34 H13          3.3210     2.0450     0.1230 hc         1 070       0.051200
     35 H14          2.6250     1.2360     1.5120 hc         1 070       0.051200
     36 H15          3.2250    -1.1210     2.0390 ha         1 070       0.125500
     37 H16          5.0110    -2.8130     2.0000 ha         1 070       0.127500
     38 H17          6.8970    -2.5960     0.4080 ha         1 070       0.128000
     39 H18          6.9680    -0.6690    -1.1460 ha         1 070       0.127500
     40 H19          5.1750     1.0170    -1.1090 ha         1 070       0.125500
     41 H20          1.3880     0.2320    -2.3420 hn         1 070       0.345800
     42 H21          2.4280     1.4700    -2.1130 hn         1 070       0.345800
@<TRIPOS>BOND
     1     1     2 ar  
     2     1     6 ar  
     3     1    22 1   
     4     2     3 ar  
     5     2    23 1   
     6     3     4 ar  
     7     3    24 1   
     8     4     5 ar  
     9     4    25 1   
    10     5     6 ar  
    11     5    26 1   
    12     6     7 1   
    13     7     8 1   
    14     7    27 1   
    15     7    28 1   
    16     8     9 1   
    17     8    10 1   
    18     8    29 1   
    19     9    10 1   
    20    10    11 1   
    21    10    30 1   
    22    11    12 1   
    23    11    13 1   
    24    11    31 1   
    25    12    32 1   
    26    13    14 1   
    27    13    21 1   
    28    13    33 1   
    29    14    15 1   
    30    14    34 1   
    31    14    35 1   
    32    15    16 ar  
    33    15    20 ar  
    34    16    17 ar  
    35    16    36 1   
    36    17    18 ar  
    37    17    37 1   
    38    18    19 ar  
    39    18    38 1   
    40    19    20 ar  
    41    19    39 1   
    42    20    40 1   
    43    21    41 1   
    44    21    42 1   
@<TRIPOS>SUBSTRUCTURE
     1 070         1 TEMP              0 ****  ****    0 ROOT
