@<TRIPOS>MOLECULE
071
   61    65     1     0     0
SMALL
No Charge or Current Charge


@<TRIPOS>ATOM
      1 N1          -0.0590     0.7800    -0.8130 nb         1 071      -0.231000
      2 C2           0.3360    -0.4310    -0.3770 ca         1 071       0.391900
      3 N3           1.5940    -0.8140    -0.1060 nb         1 071      -0.256000
      4 C4           0.9030     1.7090    -0.9750 ca         1 071       0.149900
      5 C5           2.2520     1.4230    -0.7030 ca         1 071      -0.221300
      6 C6           2.5530     0.1180    -0.2690 ca         1 071       0.245500
      7 C7           4.6820     2.2230    -0.1480 c6         1 071       0.000900
      8 C8           3.3670     2.4570    -0.9550 c6         1 071      -0.011100
      9 C9           4.9200     0.7470     0.0990 cc         1 071      -0.098300
     10 C10          3.9470    -0.1920     0.0470 cd         1 071      -0.251500
     11 N11          4.5710    -1.3920     0.4060 na         1 071       0.190800
     12 N12          5.9240    -1.2140     0.6750 nd         1 071      -0.516800
     13 C13          6.1120     0.0930     0.4950 cc         1 071       0.189500
     14 C14          7.4300     0.7980     0.7080 c          1 071       0.541600
     15 N15          8.4610     0.0030     1.0860 nt         1 071      -0.597000
     16 O16          7.6360     1.9960     0.5740 o          1 071      -0.610100
     17 C17          3.9600    -2.7260     0.5040 c3         1 071       0.074900
     18 N18         -0.6120    -1.4340    -0.2250 nu         1 071      -0.920900
     19 C19         -2.0140    -1.5160    -0.3150 ca         1 071       0.315000
     20 C20         -2.8420    -0.3940    -0.1370 ca         1 071      -0.143000
     21 C21         -4.2380    -0.5020    -0.2240 ca         1 071       0.279000
     22 C22         -4.8120    -1.7630    -0.4780 ca         1 071      -0.159000
     23 C23         -4.0050    -2.9010    -0.6370 ca         1 071      -0.142000
     24 C24         -2.6000    -2.7870    -0.5510 ca         1 071       0.058100
     25 O25         -1.7670    -3.8900    -0.6920 os         1 071      -0.365100
     26 C26         -2.2740    -5.2150    -0.9370 c3         1 071       0.155900
     27 N30         -5.0420     0.6490    -0.0460 nh         1 071      -0.779400
     28 C31         -6.4510     0.5490     0.4530 c6         1 071       0.190300
     29 C32         -6.9630     1.8850     1.0830 c6         1 071       0.159300
     30 N33         -6.7920     3.0590     0.1740 n3         1 071      -0.716600
     31 C34         -5.3600     3.1710    -0.2430 c6         1 071       0.159300
     32 C35         -4.8160     1.8610    -0.9000 c6         1 071       0.190300
     33 C36         -7.3160     4.3130     0.7550 c3         1 071       0.153100
     34 H4           0.5890     2.6860    -1.3380 h4         1 071       0.024100
     35 H7           5.5150     2.6870    -0.6910 hc         1 071       0.070700
     36 H7A          4.6110     2.7470     0.8150 hc         1 071       0.070700
     37 H8           3.6100     2.4330    -2.0260 hc         1 071       0.053200
     38 H8A          2.9950     3.4720    -0.7590 hc         1 071       0.053200
     39 HN15         8.3020    -0.9890     1.2020 hn         1 071       0.322000
     40 HN1A         9.3720     0.4050     1.2480 hn         1 071       0.322000
     41 H17          3.4690    -2.9720    -0.4440 h1         1 071       0.065700
     42 H17A         4.7300    -3.4760     0.7170 h1         1 071       0.065700
     43 H17B         3.2190    -2.7280     1.3120 h1         1 071       0.065700
     44 HN18        -0.1890    -2.3590    -0.1540 hn         1 071       0.525000
     45 H20         -2.4110     0.5690     0.1020 ha         1 071       0.158000
     46 H22         -5.8900    -1.8690    -0.5580 ha         1 071       0.116000
     47 H23         -4.4860    -3.8570    -0.8250 ha         1 071       0.116000
     48 H26         -1.4460    -5.9310    -1.0130 h1         1 071       0.039700
     49 H26A        -2.9290    -5.5400    -0.1180 h1         1 071       0.039700
     50 H26B        -2.8400    -5.2490    -1.8760 h1         1 071       0.039700
     51 H31         -7.1190     0.2730    -0.3770 h1         1 071       0.043950
     52 H31A        -6.5290    -0.2420     1.2140 h1         1 071       0.043950
     53 H32         -8.0230     1.7610     1.3490 h1         1 071       0.039200
     54 H32A        -6.4170     2.0560     2.0230 h1         1 071       0.039200
     55 H34         -5.2350     3.9970    -0.9580 h1         1 071       0.039200
     56 H34A        -4.7330     3.4070     0.6300 h1         1 071       0.039200
     57 H35         -3.7450     2.0000    -1.1080 h1         1 071       0.043950
     58 H35A        -5.3150     1.7220    -1.8700 h1         1 071       0.043950
     59 H36         -6.7710     4.5790     1.6720 h1         1 071       0.030700
     60 H36A        -7.2160     5.1430     0.0430 h1         1 071       0.030700
     61 H36B        -8.3800     4.2090     1.0060 h1         1 071       0.030700
@<TRIPOS>BOND
     1     1     2 ar  
     2     1     4 ar  
     3     2     3 ar  
     4     2    18 1   
     5     3     6 ar  
     6     4     5 ar  
     7     4    34 1   
     8     5     6 ar  
     9     5     8 1   
    10     6    10 1   
    11     7     8 1   
    12     7     9 1   
    13     7    35 1   
    14     7    36 1   
    15     8    37 1   
    16     8    38 1   
    17     9    10 2   
    18     9    13 1   
    19    10    11 1   
    20    11    12 1   
    21    11    17 1   
    22    12    13 2   
    23    13    14 1   
    24    14    15 1   
    25    14    16 2   
    26    15    39 1   
    27    15    40 1   
    28    17    41 1   
    29    17    42 1   
    30    17    43 1   
    31    18    19 1   
    32    18    44 1   
    33    19    20 ar  
    34    19    24 ar  
    35    20    21 ar  
    36    20    45 1   
    37    21    22 ar  
    38    21    27 1   
    39    22    23 ar  
    40    22    46 1   
    41    23    24 ar  
    42    23    47 1   
    43    24    25 1   
    44    25    26 1   
    45    26    48 1   
    46    26    49 1   
    47    26    50 1   
    48    27    28 1   
    49    27    32 1   
    50    28    29 1   
    51    28    51 1   
    52    28    52 1   
    53    29    30 1   
    54    29    53 1   
    55    29    54 1   
    56    30    31 1   
    57    30    33 1   
    58    31    32 1   
    59    31    55 1   
    60    31    56 1   
    61    32    57 1   
    62    32    58 1   
    63    33    59 1   
    64    33    60 1   
    65    33    61 1   
@<TRIPOS>SUBSTRUCTURE
     1 071         1 TEMP              0 ****  ****    0 ROOT
