@<TRIPOS>MOLECULE
071
   61    65     1     0     0
SMALL
bcc


@<TRIPOS>ATOM
      1 N1          -0.1140     0.8600    -0.1320 nb         1 071      -0.757000
      2 C2           0.3110    -0.3960    -0.1430 ca         1 071       0.917900
      3 N3           1.5930    -0.7790    -0.1330 nb         1 071      -0.782000
      4 C4           0.8210     1.8060    -0.1460 ca         1 071       0.478200
      5 C5           2.1750     1.5440    -0.1630 ca         1 071      -0.351900
      6 C6           2.5010     0.1790    -0.1390 ca         1 071       0.573800
      7 C7           4.5140     2.2340     0.5060 c6         1 071       0.000900
      8 C8           3.2420     2.5970    -0.2640 c6         1 071      -0.011100
      9 C9           4.8750     0.8110     0.2360 cc         1 071      -0.163600
     10 C10          3.9140    -0.1320    -0.0710 cd         1 071      -0.200800
     11 N11          4.5440    -1.3220    -0.2130 na         1 071       0.169400
     12 N12          5.8380    -1.2040    -0.0230 nd         1 071      -0.516800
     13 C13          6.0670     0.0750     0.2610 cc         1 071       0.254800
     14 C14          7.4330     0.5670     0.5450 c          1 071       0.608600
     15 N15          8.4030    -0.3540     0.4750 nt         1 071      -0.664000
     16 O16          7.6300     1.7430     0.8220 o          1 071      -0.610100
     17 C17          3.9750    -2.6110    -0.5490 c3         1 071       0.045600
     18 N18         -0.5730    -1.4310    -0.1590 nu         1 071      -0.727300
     19 C19         -1.9630    -1.4530    -0.1570 ca         1 071       0.176600
     20 C20         -2.7790    -0.3380    -0.0630 ca         1 071      -0.161000
     21 C21         -4.1780    -0.4480    -0.0530 ca         1 071       0.140600
     22 C22         -4.7460    -1.7120    -0.1230 ca         1 071      -0.177000
     23 C23         -3.9350    -2.8450    -0.1990 ca         1 071      -0.160000
     24 C24         -2.5610    -2.7340    -0.2280 ca         1 071       0.058100
     25 O25         -1.6990    -3.7760    -0.3120 os         1 071      -0.341900
     26 C26         -2.2290    -5.0830    -0.3770 c3         1 071       0.132700
     27 N30         -4.9350     0.7290     0.0670 nh         1 071      -0.641000
     28 C31         -6.3400     0.5840     0.3860 c6         1 071       0.190300
     29 C32         -6.9150     1.9240     0.8090 c6         1 071       0.159300
     30 N33         -6.7370     2.9140    -0.2320 n3         1 071      -0.716600
     31 C34         -5.3300     3.0580    -0.5460 c6         1 071       0.159300
     32 C35         -4.7370     1.7300    -0.9720 c6         1 071       0.190300
     33 C36         -7.3370     4.1790     0.1220 c3         1 071       0.153100
     34 H4           0.4620     2.8300    -0.1450 h4         1 071       0.024100
     35 H7           5.3220     2.9060     0.2240 hc         1 071       0.070700
     36 H7A          4.3580     2.3690     1.5810 hc         1 071       0.070700
     37 H8           3.5000     2.7290    -1.3200 hc         1 071       0.053200
     38 H8A          2.8550     3.5560     0.0820 hc         1 071       0.053200
     39 HN15         8.2040    -1.3140     0.2500 hn         1 071       0.322000
     40 HN1A         9.3610    -0.0960     0.6470 hn         1 071       0.322000
     41 H17          3.4100    -2.5460    -1.4750 h1         1 071       0.065700
     42 H17A         4.7970    -3.3080    -0.6750 h1         1 071       0.065700
     43 H17B         3.3170    -2.9580     0.2420 h1         1 071       0.065700
     44 HN18        -0.1250    -2.3340    -0.1710 hn         1 071       0.469800
     45 H20         -2.3210     0.6340     0.0280 ha         1 071       0.176000
     46 H22         -5.8180    -1.8470    -0.1280 ha         1 071       0.134000
     47 H23         -4.4100    -3.8160    -0.2490 ha         1 071       0.134000
     48 H26         -1.3810    -5.7580    -0.4530 h1         1 071       0.039700
     49 H26A        -2.8030    -5.3330     0.5200 h1         1 071       0.039700
     50 H26B        -2.8690    -5.2180    -1.2530 h1         1 071       0.039700
     51 H31         -6.9220     0.1950    -0.4650 h1         1 071       0.043950
     52 H31A        -6.4550    -0.1210     1.2100 h1         1 071       0.043950
     53 H32         -7.9820     1.8020     1.0100 h1         1 071       0.039200
     54 H32A        -6.4390     2.2360     1.7560 h1         1 071       0.039200
     55 H34         -5.2170     3.7740    -1.3640 h1         1 071       0.039200
     56 H34A        -4.7570     3.4500     0.3120 h1         1 071       0.039200
     57 H35         -3.6740     1.8660    -1.1640 h1         1 071       0.043950
     58 H35A        -5.2010     1.4090    -1.9180 h1         1 071       0.043950
     59 H36         -6.8910     4.6360     1.0200 h1         1 071       0.030700
     60 H36A        -7.2260     4.8880    -0.7010 h1         1 071       0.030700
     61 H36B        -8.4030     4.0490     0.3090 h1         1 071       0.030700
@<TRIPOS>BOND
     1     1     2 ar  
     2     1     4 ar  
     3     2     3 ar  
     4     2    18 1   
     5     3     6 ar  
     6     4     5 ar  
     7     4    34 1   
     8     5     6 ar  
     9     5     8 1   
    10     6    10 1   
    11     7     8 1   
    12     7     9 1   
    13     7    35 1   
    14     7    36 1   
    15     8    37 1   
    16     8    38 1   
    17     9    10 2   
    18     9    13 1   
    19    10    11 1   
    20    11    12 1   
    21    11    17 1   
    22    12    13 2   
    23    13    14 1   
    24    14    15 1   
    25    14    16 2   
    26    15    39 1   
    27    15    40 1   
    28    17    41 1   
    29    17    42 1   
    30    17    43 1   
    31    18    19 1   
    32    18    44 1   
    33    19    20 ar  
    34    19    24 ar  
    35    20    21 ar  
    36    20    45 1   
    37    21    22 ar  
    38    21    27 1   
    39    22    23 ar  
    40    22    46 1   
    41    23    24 ar  
    42    23    47 1   
    43    24    25 1   
    44    25    26 1   
    45    26    48 1   
    46    26    49 1   
    47    26    50 1   
    48    27    28 1   
    49    27    32 1   
    50    28    29 1   
    51    28    51 1   
    52    28    52 1   
    53    29    30 1   
    54    29    53 1   
    55    29    54 1   
    56    30    31 1   
    57    30    33 1   
    58    31    32 1   
    59    31    55 1   
    60    31    56 1   
    61    32    57 1   
    62    32    58 1   
    63    33    59 1   
    64    33    60 1   
    65    33    61 1   
@<TRIPOS>SUBSTRUCTURE
     1 071         1 TEMP              0 ****  ****    0 ROOT
