@<TRIPOS>MOLECULE
072
   89    92     1     0     0
SMALL
bcc


@<TRIPOS>ATOM
      1 S1B          1.6630     0.0630     1.4500 ss         1 072      -0.284200
      2 C1A         -0.2340    -1.2380     0.0940 c          1 072       0.705500
      3 C1B          0.2010    -1.0020     1.5320 c5         1 072      -0.052600
      4 O1A         -1.3080    -1.7430    -0.1860 o          1 072      -0.619500
      5 C1C         -0.9290    -0.3630     2.3210 c3         1 072      -0.141400
      6 C1D         -0.5350    -0.1230     3.7680 c          1 072       0.670100
      7 O1D          0.6200    -0.3060     4.1270 o          1 072      -0.598100
      8 C2A          1.9310    -0.2780    -0.3270 c5         1 072       0.195800
      9 C2B          3.1160    -1.2040    -0.5660 c3         1 072      -0.083400
     10 C2C          4.4390    -0.6160    -0.0930 c3         1 072      -0.075400
     11 C2D          5.6380    -1.4280    -0.5670 c3         1 072      -0.073400
     12 C2E          6.9660    -0.9010    -0.0400 c3         1 072      -0.074400
     13 C2F          8.1710    -1.6350    -0.6120 c3         1 072      -0.076400
     14 C2G          9.5020    -1.1260    -0.0730 c3         1 072      -0.074400
     15 C2H         10.7010    -1.8410    -0.6810 c3         1 072      -0.088100
     16 N3A          0.6830    -0.8360    -0.8010 n          1 072      -0.471800
     17 C3B          0.4320    -0.9310    -2.2280 c3         1 072       0.102000
     18 C3C         -0.1540     0.3470    -2.8150 c3         1 072      -0.097400
     19 C3D         -0.4360     0.1890    -4.3030 c3         1 072      -0.076400
     20 C3E         -1.0110     1.4590    -4.9350 c3         1 072      -0.013100
     21 C3F         -1.2890     1.2740    -6.3990 ca         1 072      -0.124300
     22 C3G         -2.5360     0.8450    -6.8490 ca         1 072      -0.155500
     23 C3H         -0.2860     1.4750    -7.3460 ca         1 072      -0.155500
     24 C3I         -2.7710     0.6220    -8.1980 ca         1 072      -0.107000
     25 C3J         -0.5210     1.2500    -8.6940 ca         1 072      -0.107000
     26 C3K         -1.7670     0.8170    -9.1430 ca         1 072      -0.128600
     27 C3L         -2.0220     0.5630   -10.6220 c          1 072       0.922200
     28 O3M         -1.0620     0.7530   -11.3950 o          1 072      -0.826800
     29 O3N         -3.1670     0.1840   -10.9370 o          1 072      -0.826800
     30 N4A         -1.4990     0.2970     4.6170 n          1 072      -0.472800
     31 C4B         -1.1880     0.5460     6.0190 c3         1 072       0.140300
     32 C4C         -1.1510     2.0190     6.3350 ca         1 072      -0.108800
     33 C4E         -2.1310     2.6010     7.1330 ca         1 072      -0.115250
     34 C4D         -0.1410     2.8250     5.8130 ca         1 072      -0.115250
     35 C4G         -2.1040     3.9640     7.4070 ca         1 072      -0.131000
     36 C4F         -0.1120     4.1850     6.0840 ca         1 072      -0.131000
     37 C4H         -1.0960     4.7580     6.8830 ca         1 072      -0.125000
     38 C5B         -2.8660     0.5900     4.2350 c3         1 072       0.140300
     39 C5C         -3.8620    -0.3570     4.8590 ca         1 072      -0.108800
     40 C5D         -5.0070     0.1370     5.4740 ca         1 072      -0.115250
     41 C5E         -3.6610    -1.7350     4.8180 ca         1 072      -0.115250
     42 C5F         -5.9440    -0.7280     6.0280 ca         1 072      -0.131000
     43 C5G         -4.5920    -2.6010     5.3720 ca         1 072      -0.131000
     44 C5H         -5.7380    -2.0990     5.9780 ca         1 072      -0.125000
     45 H1B          0.4620    -1.9670     1.9760 h1         1 072       0.106700
     46 H1C1        -1.2080     0.5880     1.8590 hc         1 072       0.083700
     47 H1C2        -1.8040    -1.0140     2.2640 hc         1 072       0.083700
     48 H2A          2.1140     0.6810    -0.8220 h2         1 072       0.084700
     49 H2B1         3.1880    -1.4050    -1.6390 hc         1 072       0.052700
     50 H2B2         2.9260    -2.1630    -0.0760 hc         1 072       0.052700
     51 H2C1         4.4450    -0.5540     0.9990 hc         1 072       0.047200
     52 H2C2         4.5380     0.4120    -0.4590 hc         1 072       0.047200
     53 H2D1         5.6580    -1.4290    -1.6620 hc         1 072       0.038700
     54 H2D2         5.5160    -2.4740    -0.2670 hc         1 072       0.038700
     55 H2E1         6.9790    -0.9730     1.0540 hc         1 072       0.037700
     56 H2E2         7.0510     0.1670    -0.2720 hc         1 072       0.037700
     57 H2F1         8.1640    -1.5410    -1.7040 hc         1 072       0.037700
     58 H2F2         8.0810    -2.7070    -0.4020 hc         1 072       0.037700
     59 H2G1         9.5200    -1.2420     1.0160 hc         1 072       0.035700
     60 H2G2         9.5820    -0.0510    -0.2630 hc         1 072       0.035700
     61 H2H1        11.6410    -1.4660    -0.2750 hc         1 072       0.030367
     62 H2H2        10.6620    -2.9150    -0.4840 hc         1 072       0.030367
     63 H2H3        10.7310    -1.7080    -1.7640 hc         1 072       0.030367
     64 H3B1         1.3700    -1.1760    -2.7290 h1         1 072       0.061200
     65 H3B2        -0.2450    -1.7680    -2.3990 h1         1 072       0.061200
     66 H3C1        -1.0790     0.5990    -2.2880 hc         1 072       0.042700
     67 H3C2         0.5390     1.1790    -2.6580 hc         1 072       0.042700
     68 H3D1         0.4850    -0.0870    -4.8270 hc         1 072       0.046200
     69 H3D2        -1.1390    -0.6370    -4.4570 hc         1 072       0.046200
     70 H3E1        -1.9310     1.7350    -4.4120 hc         1 072       0.031200
     71 H3E2        -0.3050     2.2820    -4.7920 hc         1 072       0.031200
     72 H3G         -3.3350     0.6870    -6.1330 ha         1 072       0.100500
     73 H3H          0.6910     1.8140    -7.0210 ha         1 072       0.100500
     74 H3I         -3.7480     0.2920    -8.5250 ha         1 072       0.144500
     75 H3J          0.2730     1.4130    -9.4110 ha         1 072       0.144500
     76 H4B1        -1.9460     0.0520     6.6310 h1         1 072       0.065450
     77 H4B2        -0.2350     0.0790     6.2540 h1         1 072       0.065450
     78 H4E         -2.9230     1.9870     7.5460 ha         1 072       0.135500
     79 H4D          0.6330     2.3840     5.1960 ha         1 072       0.135500
     80 H4G         -2.8750     4.4030     8.0280 ha         1 072       0.130250
     81 H4F          0.6790     4.7990     5.6740 ha         1 072       0.130250
     82 H4H         -1.0720     5.8190     7.0960 ha         1 072       0.128500
     83 H5B1        -3.1030     1.6170     4.5270 h1         1 072       0.065450
     84 H5B2        -2.9640     0.5640     3.1520 h1         1 072       0.065450
     85 H5D         -5.1690     1.2070     5.5250 ha         1 072       0.135500
     86 H5E         -2.7670    -2.1400     4.3590 ha         1 072       0.135500
     87 H5F         -6.8290    -0.3280     6.5040 ha         1 072       0.130250
     88 H5G         -4.4210    -3.6690     5.3330 ha         1 072       0.130250
     89 H5H         -6.4640    -2.7750     6.4120 ha         1 072       0.128500
@<TRIPOS>BOND
     1     1     3 1   
     2     1     8 1   
     3     2     3 1   
     4     2     4 2   
     5     2    16 1   
     6     3     5 1   
     7     3    45 1   
     8     5     6 1   
     9     5    46 1   
    10     5    47 1   
    11     6     7 2   
    12     6    30 1   
    13     8     9 1   
    14     8    16 1   
    15     8    48 1   
    16     9    10 1   
    17     9    49 1   
    18     9    50 1   
    19    10    11 1   
    20    10    51 1   
    21    10    52 1   
    22    11    12 1   
    23    11    53 1   
    24    11    54 1   
    25    12    13 1   
    26    12    55 1   
    27    12    56 1   
    28    13    14 1   
    29    13    57 1   
    30    13    58 1   
    31    14    15 1   
    32    14    59 1   
    33    14    60 1   
    34    15    61 1   
    35    15    62 1   
    36    15    63 1   
    37    16    17 1   
    38    17    18 1   
    39    17    64 1   
    40    17    65 1   
    41    18    19 1   
    42    18    66 1   
    43    18    67 1   
    44    19    20 1   
    45    19    68 1   
    46    19    69 1   
    47    20    21 1   
    48    20    70 1   
    49    20    71 1   
    50    21    22 ar  
    51    21    23 ar  
    52    22    24 ar  
    53    22    72 1   
    54    23    25 ar  
    55    23    73 1   
    56    24    26 ar  
    57    24    74 1   
    58    25    26 ar  
    59    25    75 1   
    60    26    27 1   
    61    27    28 1   
    62    27    29 1   
    63    30    31 1   
    64    30    38 1   
    65    31    32 1   
    66    31    76 1   
    67    31    77 1   
    68    32    33 ar  
    69    32    34 ar  
    70    33    35 ar  
    71    33    78 1   
    72    34    36 ar  
    73    34    79 1   
    74    35    37 ar  
    75    35    80 1   
    76    36    37 ar  
    77    36    81 1   
    78    37    82 1   
    79    38    39 1   
    80    38    83 1   
    81    38    84 1   
    82    39    40 ar  
    83    39    41 ar  
    84    40    42 ar  
    85    40    85 1   
    86    41    43 ar  
    87    41    86 1   
    88    42    44 ar  
    89    42    87 1   
    90    43    44 ar  
    91    43    88 1   
    92    44    89 1   
@<TRIPOS>SUBSTRUCTURE
     1 072         1 TEMP              0 ****  ****    0 ROOT
