@<TRIPOS>MOLECULE
072
   89    92     1     0     0
SMALL
No Charge or Current Charge


@<TRIPOS>ATOM
      1 S1B          1.4120     0.6950     0.7670 ss         1 072      -0.380000
      2 C1A         -0.4030    -0.9620    -0.3610 c          1 072       0.563000
      3 C1B          0.1970    -0.6740     1.0350 c5         1 072      -0.004700
      4 O1A         -1.5290    -1.3720    -0.6150 o          1 072      -0.544000
      5 C1C         -0.8660    -0.2820     2.0960 c3         1 072      -0.141400
      6 C1D         -0.3720    -0.2700     3.5550 c          1 072       0.603100
      7 O1D          0.6730    -0.8320     3.8610 o          1 072      -0.598100
      8 C2A          1.8290    -0.0370    -0.8820 c5         1 072       0.243700
      9 C2B          2.9950    -1.0490    -0.7860 c3         1 072      -0.083400
     10 C2C          4.3550    -0.4190    -0.4040 c3         1 072      -0.075400
     11 C2D          5.5060    -1.4490    -0.3630 c3         1 072      -0.073400
     12 C2E          6.8640    -0.8210     0.0190 c3         1 072      -0.074400
     13 C2F          8.0150    -1.8500     0.0600 c3         1 072      -0.076400
     14 C2G          9.3740    -1.2230     0.4420 c3         1 072      -0.074400
     15 C2H         10.5220    -2.2490     0.4840 c3         1 072      -0.088100
     16 N3A          0.5630    -0.6480    -1.3370 n          1 072      -0.404800
     17 C3B          0.2590    -0.8580    -2.7690 c3         1 072       0.102000
     18 C3C         -0.2200     0.4290    -3.4700 c3         1 072      -0.097400
     19 C3D         -0.5330     0.2170    -4.9670 c3         1 072      -0.076400
     20 C3E         -1.0130     1.5010    -5.6740 c3         1 072      -0.013100
     21 C3F         -1.3130     1.2650    -7.1490 ca         1 072      -0.124300
     22 C3G         -2.5990     0.8740    -7.5600 ca         1 072      -0.137500
     23 C3H         -0.3040     1.4270    -8.1150 ca         1 072      -0.137500
     24 C3I         -2.8770     0.6510    -8.9200 ca         1 072      -0.089000
     25 C3J         -0.5770     1.2050    -9.4760 ca         1 072      -0.089000
     26 C3K         -1.8690     0.8140    -9.9010 ca         1 072      -0.128600
     27 C3L         -2.1670     0.5730   -11.3730 c          1 072       0.711600
     28 O3M         -1.2660     0.7250   -12.1870 o          1 072      -0.721500
     29 O3N         -3.2980     0.2360   -11.6960 o          1 072      -0.721500
     30 N4A         -1.1290     0.4170     4.5380 n          1 072      -0.405800
     31 C4B         -0.5760     0.5730     5.9090 c3         1 072       0.140300
     32 C4C         -1.0090     1.8490     6.6240 ca         1 072      -0.108800
     33 C4E         -1.7730     1.7810     7.8060 ca         1 072      -0.097250
     34 C4D         -0.6490     3.1070     6.1030 ca         1 072      -0.097250
     35 C4G         -2.1780     2.9600     8.4560 ca         1 072      -0.113000
     36 C4F         -1.0540     4.2860     6.7540 ca         1 072      -0.113000
     37 C4H         -1.8190     4.2130     7.9300 ca         1 072      -0.107000
     38 C5B         -2.5840     0.6880     4.3750 c3         1 072       0.140300
     39 C5C         -3.4680    -0.1940     5.2510 ca         1 072      -0.108800
     40 C5D         -4.3430     0.3860     6.1920 ca         1 072      -0.097250
     41 C5E         -3.4170    -1.5970     5.1280 ca         1 072      -0.097250
     42 C5F         -5.1510    -0.4270     7.0040 ca         1 072      -0.113000
     43 C5G         -4.2260    -2.4100     5.9410 ca         1 072      -0.113000
     44 C5H         -5.0930    -1.8250     6.8800 ca         1 072      -0.107000
     45 H1B          0.7260    -1.5840     1.3460 h1         1 072       0.106700
     46 H1C1        -1.3310     0.6830     1.8650 hc         1 072       0.083700
     47 H1C2        -1.7230    -0.9640     2.0720 hc         1 072       0.083700
     48 H2A          2.0790     0.7650    -1.5890 h2         1 072       0.084700
     49 H2B1         3.1090    -1.5510    -1.7540 hc         1 072       0.052700
     50 H2B2         2.7480    -1.8330    -0.0610 hc         1 072       0.052700
     51 H2C1         4.2740     0.0620     0.5780 hc         1 072       0.047200
     52 H2C2         4.6020     0.3690    -1.1270 hc         1 072       0.047200
     53 H2D1         5.5950    -1.9300    -1.3450 hc         1 072       0.038700
     54 H2D2         5.2580    -2.2370     0.3590 hc         1 072       0.038700
     55 H2E1         6.7750    -0.3400     1.0010 hc         1 072       0.037700
     56 H2E2         7.1120    -0.0320    -0.7030 hc         1 072       0.037700
     57 H2F1         8.1040    -2.3310    -0.9220 hc         1 072       0.037700
     58 H2F2         7.7670    -2.6390     0.7820 hc         1 072       0.037700
     59 H2G1         9.2890    -0.7430     1.4250 hc         1 072       0.035700
     60 H2G2         9.6260    -0.4350    -0.2780 hc         1 072       0.035700
     61 H2H1        11.4630    -1.7580     0.7590 hc         1 072       0.030367
     62 H2H2        10.3160    -3.0330     1.2220 hc         1 072       0.030367
     63 H2H3        10.6550    -2.7220    -0.4960 hc         1 072       0.030367
     64 H3B1         1.1680    -1.2190    -3.2680 h1         1 072       0.061200
     65 H3B2        -0.5020    -1.6410    -2.8800 h1         1 072       0.061200
     66 H3C1        -1.1180     0.7990    -2.9610 hc         1 072       0.042700
     67 H3C2         0.5500     1.2040    -3.3690 hc         1 072       0.042700
     68 H3D1         0.3650    -0.1570    -5.4750 hc         1 072       0.046200
     69 H3D2        -1.3030    -0.5580    -5.0690 hc         1 072       0.046200
     70 H3E1        -1.9080     1.8790    -5.1650 hc         1 072       0.031200
     71 H3E2        -0.2480     2.2800    -5.5660 hc         1 072       0.031200
     72 H3G         -3.3890     0.7410    -6.8240 ha         1 072       0.082500
     73 H3H          0.6970     1.7250    -7.8120 ha         1 072       0.082500
     74 H3I         -3.8810     0.3500    -9.2100 ha         1 072       0.126500
     75 H3J          0.2220     1.3380   -10.2020 ha         1 072       0.126500
     76 H4B1        -0.8710    -0.3030     6.5030 h1         1 072       0.065450
     77 H4B2         0.5210     0.5770     5.8660 h1         1 072       0.065450
     78 H4E         -2.0590     0.8160     8.2180 ha         1 072       0.117500
     79 H4D         -0.0600     3.1700     5.1910 ha         1 072       0.117500
     80 H4G         -2.7700     2.9020     9.3660 ha         1 072       0.112250
     81 H4F         -0.7750     5.2550     6.3460 ha         1 072       0.112250
     82 H4H         -2.1330     5.1250     8.4330 ha         1 072       0.110500
     83 H5B1        -2.7690     1.7430     4.6170 h1         1 072       0.065450
     84 H5B2        -2.9090     0.5570     3.3380 h1         1 072       0.065450
     85 H5D         -4.3930     1.4680     6.2980 ha         1 072       0.117500
     86 H5E         -2.7480    -2.0590     4.4060 ha         1 072       0.117500
     87 H5F         -5.8210     0.0260     7.7310 ha         1 072       0.112250
     88 H5G         -4.1810    -3.4920     5.8430 ha         1 072       0.112250
     89 H5H         -5.7180    -2.4550     7.5090 ha         1 072       0.110500
@<TRIPOS>BOND
     1     1     3 1   
     2     1     8 1   
     3     2     3 1   
     4     2     4 2   
     5     2    16 1   
     6     3     5 1   
     7     3    45 1   
     8     5     6 1   
     9     5    46 1   
    10     5    47 1   
    11     6     7 2   
    12     6    30 1   
    13     8     9 1   
    14     8    16 1   
    15     8    48 1   
    16     9    10 1   
    17     9    49 1   
    18     9    50 1   
    19    10    11 1   
    20    10    51 1   
    21    10    52 1   
    22    11    12 1   
    23    11    53 1   
    24    11    54 1   
    25    12    13 1   
    26    12    55 1   
    27    12    56 1   
    28    13    14 1   
    29    13    57 1   
    30    13    58 1   
    31    14    15 1   
    32    14    59 1   
    33    14    60 1   
    34    15    61 1   
    35    15    62 1   
    36    15    63 1   
    37    16    17 1   
    38    17    18 1   
    39    17    64 1   
    40    17    65 1   
    41    18    19 1   
    42    18    66 1   
    43    18    67 1   
    44    19    20 1   
    45    19    68 1   
    46    19    69 1   
    47    20    21 1   
    48    20    70 1   
    49    20    71 1   
    50    21    22 ar  
    51    21    23 ar  
    52    22    24 ar  
    53    22    72 1   
    54    23    25 ar  
    55    23    73 1   
    56    24    26 ar  
    57    24    74 1   
    58    25    26 ar  
    59    25    75 1   
    60    26    27 1   
    61    27    28 1   
    62    27    29 1   
    63    30    31 1   
    64    30    38 1   
    65    31    32 1   
    66    31    76 1   
    67    31    77 1   
    68    32    33 ar  
    69    32    34 ar  
    70    33    35 ar  
    71    33    78 1   
    72    34    36 ar  
    73    34    79 1   
    74    35    37 ar  
    75    35    80 1   
    76    36    37 ar  
    77    36    81 1   
    78    37    82 1   
    79    38    39 1   
    80    38    83 1   
    81    38    84 1   
    82    39    40 ar  
    83    39    41 ar  
    84    40    42 ar  
    85    40    85 1   
    86    41    43 ar  
    87    41    86 1   
    88    42    44 ar  
    89    42    87 1   
    90    43    44 ar  
    91    43    88 1   
    92    44    89 1   
@<TRIPOS>SUBSTRUCTURE
     1 072         1 TEMP              0 ****  ****    0 ROOT
