@<TRIPOS>MOLECULE
073
   69    73     1     0     0
SMALL
No Charge or Current Charge


@<TRIPOS>ATOM
      1 O71          7.6130     1.7040    -0.1410 o          1 073      -0.503000
      2 C65          6.8480     1.1940     0.6690 c          1 073       0.609700
      3 O66          7.2450     0.7490     1.9050 os         1 073      -0.437100
      4 C67          8.6310     0.8890     2.2660 c3         1 073       0.154900
      5 C58          5.3730     0.9980     0.3930 ca         1 073      -0.155600
      6 C57          4.8260     1.4100    -0.8380 ca         1 073      -0.062500
      7 C56          3.4600     1.2350    -1.1110 ca         1 073      -0.114000
      8 C59          4.5160     0.4040     1.3440 ca         1 073      -0.062500
      9 C60          3.1480     0.2300     1.0710 ca         1 073      -0.114000
     10 C55          2.5900     0.6510    -0.1610 ca         1 073      -0.051300
     11 C11          1.0850     0.4760    -0.5160 c3         1 073       0.165300
     12 N12          0.5740     1.7600    -1.0960 na         1 073       0.072600
     13 N23         -0.1080     1.8770    -2.3060 nc         1 073      -0.138400
     14 N22         -0.4040     3.1620    -2.5020 nd         1 073      -0.223400
     15 C18          0.0920     3.8610    -1.4130 ca         1 073       0.017400
     16 C17          0.0270     5.2380    -1.1600 ca         1 073      -0.027000
     17 C19          0.6980     3.0100    -0.5420 ca         1 073      -0.071200
     18 C20          1.2880     3.4540     0.6530 ca         1 073      -0.100000
     19 C21          1.2380     4.8360     0.9340 ca         1 073      -0.093000
     20 C16          0.6090     5.7250     0.0310 ca         1 073      -0.147000
     21 C13          0.2030     0.1060     0.7320 c3         1 073      -0.014100
     22 C2          -1.3070     0.0470     0.4770 ca         1 073      -0.163300
     23 C3          -1.9340    -1.1780     0.1850 ca         1 073      -0.125000
     24 C4          -3.3190    -1.2350    -0.0470 ca         1 073      -0.077500
     25 C5          -4.1070    -0.0670     0.0150 ca         1 073      -0.025300
     26 C28         -5.6190    -0.1270    -0.2470 c3         1 073      -0.047700
     27 F30         -6.0610     1.0300    -0.8090 f          1 073      -0.156500
     28 P31         -6.6250    -0.4460     1.3300 p5         1 073       1.261500
     29 O34         -6.2210    -1.7530     1.9330 o          1 073      -0.898833
     30 O33         -8.0830    -0.4910     0.9970 o          1 073      -0.898833
     31 O32         -6.3830     0.6510     2.3160 o          1 073      -0.898833
     32 F29         -5.9180    -1.1000    -1.1490 f          1 073      -0.156500
     33 C6          -3.4800     1.1550     0.3350 ca         1 073      -0.077500
     34 C1          -2.0950     1.2100     0.5680 ca         1 073      -0.125000
     35 C37          0.9970    -0.6780    -1.5760 c3         1 073      -0.041200
     36 C38          1.5560    -2.0190    -1.1180 c2         1 073      -0.199200
     37 C41          0.9180    -3.2070    -1.2190 ce         1 073      -0.166200
     38 C43          1.4450    -4.5290    -0.7700 ca         1 073      -0.036800
     39 C49          2.8070    -4.7270    -0.4500 ca         1 073      -0.100000
     40 C48          3.2650    -5.9890    -0.0320 ca         1 073      -0.116500
     41 C47          2.3710    -7.0660     0.0690 ca         1 073      -0.121000
     42 C46          1.0160    -6.8810    -0.2510 ca         1 073      -0.116500
     43 C45          0.5580    -5.6200    -0.6700 ca         1 073      -0.100000
     44 H671         8.8030     0.4940     3.2750 h1         1 073       0.043700
     45 H672         9.2750     0.3370     1.5690 h1         1 073       0.043700
     46 H673         8.9320     1.9450     2.2590 h1         1 073       0.043700
     47 H57          5.4610     1.8680    -1.5950 ha         1 073       0.126500
     48 H56          3.0780     1.5630    -2.0750 ha         1 073       0.133000
     49 H59          4.9010     0.0680     2.3050 ha         1 073       0.126500
     50 H60          2.5410    -0.2390     1.8390 ha         1 073       0.133000
     51 H17         -0.4600     5.9110    -1.8620 ha         1 073       0.128000
     52 H20          1.7710     2.7700     1.3460 ha         1 073       0.121000
     53 H21          1.6850     5.2180     1.8500 ha         1 073       0.102000
     54 H16          0.5740     6.7890     0.2540 ha         1 073       0.105000
     55 H131         0.5260    -0.8620     1.1320 hc         1 073       0.044700
     56 H132         0.3930     0.8320     1.5310 hc         1 073       0.044700
     57 H3          -1.3490    -2.0930     0.1390 ha         1 073       0.075000
     58 H4          -3.7790    -2.1950    -0.2710 ha         1 073       0.139500
     59 H6          -4.0660     2.0680     0.4080 ha         1 073       0.139500
     60 H1          -1.6360     2.1640     0.8170 ha         1 073       0.075000
     61 H371        -0.0470    -0.8030    -1.8880 hc         1 073       0.081200
     62 H372         1.5340    -0.3720    -2.4820 hc         1 073       0.081200
     63 H38          2.5540    -1.9590    -0.6850 ha         1 073       0.159000
     64 H41         -0.0840    -3.2440    -1.6520 ha         1 073       0.195000
     65 H49          3.5220    -3.9140    -0.5310 ha         1 073       0.117500
     66 H48          4.3160    -6.1310     0.2110 ha         1 073       0.104500
     67 H47          2.7260    -8.0420     0.3930 ha         1 073       0.100000
     68 H46          0.3210    -7.7140    -0.1750 ha         1 073       0.104500
     69 H45         -0.4940    -5.4910    -0.9130 ha         1 073       0.117500
@<TRIPOS>BOND
     1     1     2 2   
     2     2     3 1   
     3     2     5 1   
     4     3     4 1   
     5     4    44 1   
     6     4    45 1   
     7     4    46 1   
     8     5     6 ar  
     9     5     8 ar  
    10     6     7 ar  
    11     6    47 1   
    12     7    10 ar  
    13     7    48 1   
    14     8     9 ar  
    15     8    49 1   
    16     9    10 ar  
    17     9    50 1   
    18    10    11 1   
    19    11    12 1   
    20    11    21 1   
    21    11    35 1   
    22    12    13 1   
    23    12    17 1   
    24    13    14 2   
    25    14    15 1   
    26    15    16 ar  
    27    15    17 ar  
    28    16    20 ar  
    29    16    51 1   
    30    17    18 ar  
    31    18    19 ar  
    32    18    52 1   
    33    19    20 ar  
    34    19    53 1   
    35    20    54 1   
    36    21    22 1   
    37    21    55 1   
    38    21    56 1   
    39    22    23 ar  
    40    22    34 ar  
    41    23    24 ar  
    42    23    57 1   
    43    24    25 ar  
    44    24    58 1   
    45    25    26 1   
    46    25    33 ar  
    47    26    27 1   
    48    26    28 1   
    49    26    32 1   
    50    28    29 1   
    51    28    30 1   
    52    28    31 1   
    53    33    34 ar  
    54    33    59 1   
    55    34    60 1   
    56    35    36 1   
    57    35    61 1   
    58    35    62 1   
    59    36    37 2   
    60    36    63 1   
    61    37    38 1   
    62    37    64 1   
    63    38    39 ar  
    64    38    43 ar  
    65    39    40 ar  
    66    39    65 1   
    67    40    41 ar  
    68    40    66 1   
    69    41    42 ar  
    70    41    67 1   
    71    42    43 ar  
    72    42    68 1   
    73    43    69 1   
@<TRIPOS>SUBSTRUCTURE
     1 073         1 TEMP              0 ****  ****    0 ROOT
