@<TRIPOS>MOLECULE
073
   69    73     1     0     0
SMALL
abcg2


@<TRIPOS>ATOM
      1 O71          7.4630     1.5230    -0.2010 o          1 073      -0.503000
      2 C65          6.7210     1.0420     0.6210 c          1 073       0.609700
      3 O66          7.1210     0.6090     1.8040 os         1 073      -0.437100
      4 C67          8.5110     0.7190     2.1130 c3         1 073       0.154900
      5 C58          5.2610     0.8700     0.4120 ca         1 073      -0.155600
      6 C57          4.7050     1.3170    -0.7860 ca         1 073      -0.062500
      7 C56          3.3520     1.1770    -1.0240 ca         1 073      -0.114000
      8 C59          4.4320     0.2790     1.3590 ca         1 073      -0.062500
      9 C60          3.0740     0.1390     1.1130 ca         1 073      -0.114000
     10 C55          2.5150     0.5870    -0.0780 ca         1 073      -0.051300
     11 C11          1.0390     0.3990    -0.4100 c3         1 073       0.165300
     12 N12          0.5530     1.6640    -0.9700 na         1 073       0.072600
     13 N23         -0.1900     1.7050    -2.0720 nc         1 073      -0.138400
     14 N22         -0.5700     2.9000    -2.3050 nd         1 073      -0.223400
     15 C18         -0.0790     3.7050    -1.3180 ca         1 073       0.017400
     16 C17         -0.2180     5.0810    -1.1080 ca         1 073      -0.027000
     17 C19          0.6550     2.9110    -0.4340 ca         1 073      -0.071200
     18 C20          1.2780     3.4440     0.6990 ca         1 073      -0.100000
     19 C21          1.1290     4.7990     0.8940 ca         1 073      -0.093000
     20 C16          0.3930     5.6110     0.0040 ca         1 073      -0.147000
     21 C13          0.1870     0.0660     0.8400 c3         1 073      -0.014100
     22 C2          -1.2920     0.0270     0.5770 ca         1 073      -0.163300
     23 C3          -1.9370    -1.1770     0.3130 ca         1 073      -0.125000
     24 C4          -3.2960    -1.2240     0.0350 ca         1 073      -0.077500
     25 C5          -4.0500    -0.0570     0.0130 ca         1 073      -0.025300
     26 C28         -5.5160    -0.0680    -0.2850 c3         1 073      -0.047700
     27 F30         -5.7680     0.9110    -1.2330 f          1 073      -0.156500
     28 P31         -6.6430     0.1740     1.2100 p5         1 073       1.261500
     29 O34         -6.2120    -0.9520     2.1420 o          1 073      -0.898833
     30 O33         -8.0470     0.0320     0.6260 o          1 073      -0.898833
     31 O32         -6.2870     1.5820     1.6810 o          1 073      -0.898833
     32 F29         -5.8300    -1.2500    -0.9260 f          1 073      -0.156500
     33 C6          -3.4200     1.1480     0.3160 ca         1 073      -0.077500
     34 C1          -2.0640     1.1870     0.5960 ca         1 073      -0.125000
     35 C37          0.9150    -0.7080    -1.4830 c3         1 073      -0.041200
     36 C38          1.6010    -1.9750    -1.0900 c2         1 073      -0.199200
     37 C41          0.9950    -3.1610    -1.0280 ce         1 073      -0.166200
     38 C43          1.6160    -4.4510    -0.7120 ca         1 073      -0.036800
     39 C49          2.9720    -4.5970    -0.4020 ca         1 073      -0.100000
     40 C48          3.5030    -5.8450    -0.1200 ca         1 073      -0.116500
     41 C47          2.6950    -6.9770    -0.1400 ca         1 073      -0.121000
     42 C46          1.3480    -6.8470    -0.4430 ca         1 073      -0.116500
     43 C45          0.8160    -5.5960    -0.7250 ca         1 073      -0.100000
     44 H671         8.6240     0.3230     3.1180 h1         1 073       0.043700
     45 H672         9.1180     0.1330     1.4230 h1         1 073       0.043700
     46 H673         8.8420     1.7570     2.0920 h1         1 073       0.043700
     47 H57          5.3310     1.7800    -1.5370 ha         1 073       0.126500
     48 H56          2.9500     1.5340    -1.9640 ha         1 073       0.133000
     49 H59          4.8280    -0.0830     2.2970 ha         1 073       0.126500
     50 H60          2.4670    -0.3320     1.8730 ha         1 073       0.133000
     51 H17         -0.7860     5.6960    -1.7930 ha         1 073       0.128000
     52 H20          1.8450     2.8410     1.3920 ha         1 073       0.121000
     53 H21          1.5920     5.2580     1.7570 ha         1 073       0.102000
     54 H16          0.3100     6.6690     0.2090 ha         1 073       0.105000
     55 H131         0.5110    -0.9040     1.2220 hc         1 073       0.044700
     56 H132         0.4020     0.7970     1.6230 hc         1 073       0.044700
     57 H3          -1.3660    -2.0970     0.3330 ha         1 073       0.075000
     58 H4          -3.7530    -2.1820    -0.1680 ha         1 073       0.139500
     59 H6          -3.9970     2.0610     0.3510 ha         1 073       0.139500
     60 H1          -1.6100     2.1370     0.8520 ha         1 073       0.075000
     61 H371        -0.1370    -0.8970    -1.7010 hc         1 073       0.081200
     62 H372         1.3680    -0.3400    -2.4090 hc         1 073       0.081200
     63 H38          2.6670    -1.9010    -0.8970 ha         1 073       0.159000
     64 H41         -0.0700    -3.2110    -1.2430 ha         1 073       0.195000
     65 H49          3.6260    -3.7350    -0.3800 ha         1 073       0.117500
     66 H48          4.5560    -5.9360     0.1150 ha         1 073       0.104500
     67 H47          3.1150    -7.9490     0.0810 ha         1 073       0.100000
     68 H46          0.7070    -7.7190    -0.4630 ha         1 073       0.104500
     69 H45         -0.2370    -5.5030    -0.9600 ha         1 073       0.117500
@<TRIPOS>BOND
     1     1     2 2   
     2     2     3 1   
     3     2     5 1   
     4     3     4 1   
     5     4    44 1   
     6     4    45 1   
     7     4    46 1   
     8     5     6 ar  
     9     5     8 ar  
    10     6     7 ar  
    11     6    47 1   
    12     7    10 ar  
    13     7    48 1   
    14     8     9 ar  
    15     8    49 1   
    16     9    10 ar  
    17     9    50 1   
    18    10    11 1   
    19    11    12 1   
    20    11    21 1   
    21    11    35 1   
    22    12    13 1   
    23    12    17 1   
    24    13    14 2   
    25    14    15 1   
    26    15    16 ar  
    27    15    17 ar  
    28    16    20 ar  
    29    16    51 1   
    30    17    18 ar  
    31    18    19 ar  
    32    18    52 1   
    33    19    20 ar  
    34    19    53 1   
    35    20    54 1   
    36    21    22 1   
    37    21    55 1   
    38    21    56 1   
    39    22    23 ar  
    40    22    34 ar  
    41    23    24 ar  
    42    23    57 1   
    43    24    25 ar  
    44    24    58 1   
    45    25    26 1   
    46    25    33 ar  
    47    26    27 1   
    48    26    28 1   
    49    26    32 1   
    50    28    29 1   
    51    28    30 1   
    52    28    31 1   
    53    33    34 ar  
    54    33    59 1   
    55    34    60 1   
    56    35    36 1   
    57    35    61 1   
    58    35    62 1   
    59    36    37 2   
    60    36    63 1   
    61    37    38 1   
    62    37    64 1   
    63    38    39 ar  
    64    38    43 ar  
    65    39    40 ar  
    66    39    65 1   
    67    40    41 ar  
    68    40    66 1   
    69    41    42 ar  
    70    41    67 1   
    71    42    43 ar  
    72    42    68 1   
    73    43    69 1   
@<TRIPOS>SUBSTRUCTURE
     1 073         1 TEMP              0 ****  ****    0 ROOT
