@<TRIPOS>MOLECULE
074
   57    57     1     0     0
SMALL
abcg2


@<TRIPOS>ATOM
      1 C1           7.9260     3.3790     0.4560 c3         1 074      -0.086100
      2 C2           6.6110     2.8630    -0.1080 c3         1 074      -0.096400
      3 C3           6.5220     1.3480    -0.0240 c3         1 074       0.102000
      4 N1           5.2750     0.8760    -0.5940 ns         1 074      -0.497900
      5 C4           4.8110    -0.3640    -0.4310 c          1 074       0.561100
      6 O1           5.3840    -1.2290     0.2190 o          1 074      -0.623100
      7 C5           3.4490    -0.6510    -1.0630 c3         1 074       0.107300
      8 O2           3.3080    -2.0180    -1.3190 oh         1 074      -0.636000
      9 C6           2.3550    -0.1340    -0.1250 c3         1 074      -0.194400
     10 C7           0.9830    -0.4040    -0.7020 c          1 074       0.619100
     11 O3           0.6930    -0.0720    -1.8430 o          1 074      -0.614100
     12 N2           0.1220    -1.0270     0.1150 ns         1 074      -0.468900
     13 C8          -1.2670    -1.1900    -0.2250 c3         1 074       0.031700
     14 C13         -1.9700     0.1740    -0.1750 c          1 074       0.598100
     15 O4          -1.4500     1.1230     0.3980 o          1 074      -0.608100
     16 C9          -1.9370    -2.2290     0.6960 c3         1 074      -0.062700
     17 C11         -2.0870    -1.7340     2.1380 c3         1 074      -0.086400
     18 C10         -1.2100    -3.5680     0.5950 c3         1 074      -0.085100
     19 C12         -2.8320    -2.7120     3.0360 c3         1 074      -0.080100
     20 N3          -3.1570     0.2790    -0.7820 n          1 074      -0.372800
     21 C17         -3.8970     1.5330    -0.7060 c5         1 074      -0.029300
     22 C18         -4.2920     1.9320     0.7300 c          1 074       0.728000
     23 O           -4.4870     1.0110     1.5430 o          1 074      -0.725500
     24 C16         -5.1460     1.2600    -1.5590 c5         1 074      -0.077400
     25 C15         -4.7280     0.1200    -2.4810 c5         1 074      -0.099400
     26 C14         -3.8490    -0.7260    -1.5730 c5         1 074       0.110000
     27 OT          -4.4490     3.1550     0.9190 o          1 074      -0.725500
     28 H11          8.0300     3.1280     1.5130 hc         1 074       0.034367
     29 H12          8.7790     2.9520    -0.0730 hc         1 074       0.034367
     30 H13          7.9910     4.4630     0.3680 hc         1 074       0.034367
     31 H21          5.7720     3.3070     0.4330 hc         1 074       0.046200
     32 H22          6.5120     3.1750    -1.1520 hc         1 074       0.046200
     33 H31          7.3720     0.8960    -0.5450 h1         1 074       0.049200
     34 H32          6.5820     1.0290     1.0190 h1         1 074       0.049200
     35 HN11         4.7830     1.4950    -1.2200 hn         1 074       0.320500
     36 H51          3.3680    -0.1300    -2.0210 h1         1 074       0.095700
     37 HO21         3.6790    -2.4970    -0.5660 ho         1 074       0.459000
     38 H61          2.4760    -0.5780     0.8680 hc         1 074       0.068200
     39 H62          2.4530     0.9480     0.0010 hc         1 074       0.068200
     40 HN21         0.4030    -1.1880     1.0680 hn         1 074       0.313500
     41 H81         -1.3150    -1.5730    -1.2480 h1         1 074       0.070700
     42 H91         -2.9490    -2.3810     0.3080 hc         1 074       0.062700
     43 H111        -1.1060    -1.5220     2.5790 hc         1 074       0.067700
     44 H112        -2.6350    -0.7890     2.1280 hc         1 074       0.067700
     45 H101        -1.0960    -3.8730    -0.4470 hc         1 074       0.026367
     46 H102        -0.2140    -3.5280     1.0390 hc         1 074       0.026367
     47 H103        -1.7640    -4.3550     1.1050 hc         1 074       0.026367
     48 H121        -3.0230    -2.2670     4.0130 hc         1 074       0.023700
     49 H122        -3.7970    -2.9830     2.6050 hc         1 074       0.023700
     50 H123        -2.2740    -3.6340     3.2030 hc         1 074       0.023700
     51 H171        -3.3010     2.3320    -1.1580 h1         1 074       0.054700
     52 H161        -5.4770     2.1490    -2.0920 hc         1 074       0.047200
     53 H162        -5.9730     0.9270    -0.9260 hc         1 074       0.047200
     54 H151        -4.1430     0.4960    -3.3240 hc         1 074       0.032200
     55 H152        -5.5720    -0.4410    -2.8810 hc         1 074       0.032200
     56 H141        -3.1570    -1.3600    -2.1270 h1         1 074       0.030200
     57 H142        -4.4650    -1.3710    -0.9400 h1         1 074       0.030200
@<TRIPOS>BOND
     1     1     2 1   
     2     1    28 1   
     3     1    29 1   
     4     1    30 1   
     5     2     3 1   
     6     2    31 1   
     7     2    32 1   
     8     3     4 1   
     9     3    33 1   
    10     3    34 1   
    11     4     5 1   
    12     4    35 1   
    13     5     6 2   
    14     5     7 1   
    15     7     8 1   
    16     7     9 1   
    17     7    36 1   
    18     8    37 1   
    19     9    10 1   
    20     9    38 1   
    21     9    39 1   
    22    10    11 2   
    23    10    12 1   
    24    12    13 1   
    25    12    40 1   
    26    13    14 1   
    27    13    16 1   
    28    13    41 1   
    29    14    15 2   
    30    14    20 1   
    31    16    17 1   
    32    16    18 1   
    33    16    42 1   
    34    17    19 1   
    35    17    43 1   
    36    17    44 1   
    37    18    45 1   
    38    18    46 1   
    39    18    47 1   
    40    19    48 1   
    41    19    49 1   
    42    19    50 1   
    43    20    21 1   
    44    20    26 1   
    45    21    22 1   
    46    21    24 1   
    47    21    51 1   
    48    22    23 1   
    49    22    27 1   
    50    24    25 1   
    51    24    52 1   
    52    24    53 1   
    53    25    26 1   
    54    25    54 1   
    55    25    55 1   
    56    26    56 1   
    57    26    57 1   
@<TRIPOS>SUBSTRUCTURE
     1 074         1 TEMP              0 ****  ****    0 ROOT
