@<TRIPOS>MOLECULE
074
   57    57     1     0     0
SMALL
No Charge or Current Charge


@<TRIPOS>ATOM
      1 C1           8.6010     2.5640    -0.1390 c3         1 074      -0.086100
      2 C2           7.1620     2.0270    -0.2610 c3         1 074      -0.096400
      3 C3           7.0610     0.5120     0.0090 c3         1 074       0.102000
      4 N1           5.6910     0.0160    -0.1350 ns         1 074      -0.497900
      5 C4           4.6940     0.1710     0.8090 c          1 074       0.561100
      6 O1           4.9040     0.7010     1.8940 o          1 074      -0.623100
      7 C5           3.3020    -0.4280     0.4290 c3         1 074       0.107300
      8 O2           2.6820    -1.0820     1.5590 oh         1 074      -0.636000
      9 C6           2.3400     0.6590    -0.1010 c3         1 074      -0.194400
     10 C7           1.1210     0.0320    -0.7720 c          1 074       0.619100
     11 O3           1.1850    -0.4970    -1.8720 o          1 074      -0.614100
     12 N2          -0.0580     0.1550    -0.0720 ns         1 074      -0.468900
     13 C8          -1.3730    -0.3830    -0.4960 c3         1 074       0.031700
     14 C13         -2.5120     0.6290    -0.1360 c          1 074       0.598100
     15 O4          -2.3170     1.5480     0.6540 o          1 074      -0.608100
     16 C9          -1.6350    -1.8100     0.0900 c3         1 074      -0.062700
     17 C11         -1.5540    -1.8380     1.6460 c3         1 074      -0.086400
     18 C10         -0.7220    -2.8760    -0.5660 c3         1 074      -0.085100
     19 C12         -2.0120    -3.1650     2.2900 c3         1 074      -0.080100
     20 N3          -3.7940     0.4420    -0.7050 n          1 074      -0.372800
     21 C17         -4.9860     1.2390    -0.2880 c5         1 074      -0.029300
     22 C18         -5.3340     1.2180     1.2420 c          1 074       0.728000
     23 O           -5.2600     0.1680     1.8690 o          1 074      -0.725500
     24 C16         -6.1170     0.5370    -1.0930 c5         1 074      -0.077400
     25 C15         -5.3950     0.2290    -2.4260 c5         1 074      -0.099400
     26 C14         -4.0390    -0.3450    -1.9360 c5         1 074       0.110000
     27 OT          -5.6620     2.2670     1.7830 o          1 074      -0.725500
     28 H11          8.9940     2.3940     0.8710 hc         1 074       0.034367
     29 H12          9.2640     2.0660    -0.8570 hc         1 074       0.034367
     30 H13          8.6260     3.6420    -0.3390 hc         1 074       0.034367
     31 H21          6.5190     2.5680     0.4440 hc         1 074       0.046200
     32 H22          6.7850     2.2400    -1.2690 hc         1 074       0.046200
     33 H31          7.7030    -0.0290    -0.6990 h1         1 074       0.049200
     34 H32          7.4190     0.2910     1.0240 h1         1 074       0.049200
     35 HN11         5.4390    -0.4520    -0.9990 hn         1 074       0.320500
     36 H51          3.4800    -1.1580    -0.3730 h1         1 074       0.095700
     37 HO21         3.0080    -0.6180     2.3650 ho         1 074       0.459000
     38 H61          2.0360     1.3060     0.7310 hc         1 074       0.068200
     39 H62          2.8730     1.2510    -0.8530 hc         1 074       0.068200
     40 HN21        -0.0110     0.6500     0.8100 hn         1 074       0.313500
     41 H81         -1.3670    -0.4560    -1.5900 h1         1 074       0.070700
     42 H91         -2.6610    -2.0880    -0.1750 hc         1 074       0.062700
     43 H111        -0.5260    -1.6290     1.9680 hc         1 074       0.067700
     44 H112        -2.1780    -1.0350     2.0560 hc         1 074       0.067700
     45 H101        -0.7540    -2.7920    -1.6590 hc         1 074       0.026367
     46 H102         0.3180    -2.7590    -0.2420 hc         1 074       0.026367
     47 H103        -1.0490    -3.8890    -0.3060 hc         1 074       0.026367
     48 H121        -2.0190    -3.0720     3.3830 hc         1 074       0.023700
     49 H122        -3.0250    -3.4270     1.9630 hc         1 074       0.023700
     50 H123        -1.3360    -3.9870     2.0290 hc         1 074       0.023700
     51 H171        -4.8680     2.2840    -0.6040 h1         1 074       0.054700
     52 H161        -6.9980     1.1760    -1.2240 hc         1 074       0.047200
     53 H162        -6.4510    -0.3880    -0.6060 hc         1 074       0.047200
     54 H151        -5.2460     1.1440    -3.0120 hc         1 074       0.032200
     55 H152        -5.9450    -0.4780    -3.0550 hc         1 074       0.032200
     56 H141        -3.2520    -0.2100    -2.6880 h1         1 074       0.030200
     57 H142        -4.1280    -1.4130    -1.7040 h1         1 074       0.030200
@<TRIPOS>BOND
     1     1     2 1   
     2     1    28 1   
     3     1    29 1   
     4     1    30 1   
     5     2     3 1   
     6     2    31 1   
     7     2    32 1   
     8     3     4 1   
     9     3    33 1   
    10     3    34 1   
    11     4     5 1   
    12     4    35 1   
    13     5     6 2   
    14     5     7 1   
    15     7     8 1   
    16     7     9 1   
    17     7    36 1   
    18     8    37 1   
    19     9    10 1   
    20     9    38 1   
    21     9    39 1   
    22    10    11 2   
    23    10    12 1   
    24    12    13 1   
    25    12    40 1   
    26    13    14 1   
    27    13    16 1   
    28    13    41 1   
    29    14    15 2   
    30    14    20 1   
    31    16    17 1   
    32    16    18 1   
    33    16    42 1   
    34    17    19 1   
    35    17    43 1   
    36    17    44 1   
    37    18    45 1   
    38    18    46 1   
    39    18    47 1   
    40    19    48 1   
    41    19    49 1   
    42    19    50 1   
    43    20    21 1   
    44    20    26 1   
    45    21    22 1   
    46    21    24 1   
    47    21    51 1   
    48    22    23 1   
    49    22    27 1   
    50    24    25 1   
    51    24    52 1   
    52    24    53 1   
    53    25    26 1   
    54    25    54 1   
    55    25    55 1   
    56    26    56 1   
    57    26    57 1   
@<TRIPOS>SUBSTRUCTURE
     1 074         1 TEMP              0 ****  ****    0 ROOT
