@<TRIPOS>MOLECULE
075
  101   106     1     0     0
SMALL
abcg2


@<TRIPOS>ATOM
      1 C           -6.4610    -3.9310    -2.4780 ca         1 075       0.307900
      2 C1          -6.0230    -2.8570    -1.7540 ca         1 075      -0.119000
      3 C2          -6.1820    -2.8670    -0.3520 ca         1 075      -0.032000
      4 C3          -6.7880    -3.9990     0.2350 ca         1 075      -0.069000
      5 C4          -7.1970    -5.0400    -0.6320 ca         1 075       0.348900
      6 C5          -5.7540    -1.8030     0.4930 ca         1 075       0.153100
      7 C6          -5.9290    -1.8960     1.8510 ca         1 075      -0.203000
      8 C7          -6.5370    -3.0380     2.4160 ca         1 075      -0.072000
      9 C8          -6.9630    -4.0740     1.6350 ca         1 075      -0.120000
     10 C9          -4.5850     0.2420     0.6070 c3         1 075       0.075600
     11 C10         -3.8420     1.1520    -0.3530 c          1 075       0.616100
     12 N           -7.0460    -5.0180    -1.9280 nb         1 075      -0.655000
     13 O           -5.1930    -0.7660    -0.1480 os         1 075      -0.310100
     14 O2          -3.9050     1.0430    -1.5600 o          1 075      -0.556100
     15 C12         -0.8850     2.8740    -0.1340 c          1 075       0.592100
     16 O5          -0.2920     3.4050     0.7910 o          1 075      -0.620100
     17 C21         -2.3740     3.1270    -0.3870 c3         1 075       0.059700
     18 C11         -2.7690     4.5130     0.1000 c3         1 075      -0.308400
     19 S           -4.4980     4.8410    -0.2710 s6         1 075       1.083000
     20 O8          -5.3500     4.0830     0.6440 o          1 075      -0.512000
     21 C28         -4.6660     6.5710     0.1050 c3         1 075      -0.335100
     22 O6          -4.6940     4.6470    -1.7080 o          1 075      -0.512000
     23 N1          -3.1180     2.0920     0.2870 ns         1 075      -0.524900
     24 C16          3.4270     1.8280    -1.1390 c          1 075       0.577100
     25 N2          -0.3380     1.9760    -0.9610 ns         1 075      -0.476900
     26 O3           4.0190     1.0440    -1.8720 o          1 075      -0.614100
     27 C14          2.0270     2.2910    -1.5210 c3         1 075       0.087300
     28 C22         -0.0350    -0.8490    -0.4470 ca         1 075      -0.088300
     29 C15          1.0020    -0.0450    -1.1820 c3         1 075      -0.047100
     30 C25         -1.9610    -2.3340     0.9390 ca         1 075      -0.121000
     31 C13          0.9850     1.4280    -0.7660 c3         1 075       0.088700
     32 O1           1.8550     2.2200    -2.9030 oh         1 075      -0.645000
     33 C23         -1.1820    -1.3030    -1.0910 ca         1 075      -0.104500
     34 C27          0.1330    -1.1460     0.9050 ca         1 075      -0.104500
     35 C24         -2.1360    -2.0460    -0.4070 ca         1 075      -0.112500
     36 C26         -0.8230    -1.8780     1.5940 ca         1 075      -0.112500
     37 C20          4.8400     0.1480     0.8200 c          1 075       0.601100
     38 N3           3.9510     2.2510     0.0230 n          1 075      -0.389800
     39 O4           3.7470    -0.1880     1.2420 o          1 075      -0.595100
     40 C17          5.1620     1.6110     0.5000 c5         1 075       0.028700
     41 C18          5.6550     2.4220     1.7180 c5         1 075       0.094000
     42 C19          3.3400     3.2300     0.9110 c5         1 075       0.229000
     43 C29          6.4470     3.6360     1.2390 c3         1 075      -0.082600
     44 C30          6.4810     1.6180     2.7120 c3         1 075      -0.082600
     45 S1           4.0980     2.9500     2.5220 ss         1 075      -0.388000
     46 N4           5.8560    -0.6990     0.6050 ns         1 075      -0.480900
     47 O7           8.1330    -2.1260     0.5970 oh         1 075      -0.661000
     48 C31          5.7790    -2.1080     0.8740 c5         1 075       0.160000
     49 C32          5.4440    -2.9830    -0.3100 ca         1 075      -0.106300
     50 C33          4.6120    -2.7230    -1.3830 ca         1 075      -0.071000
     51 C34          4.4360    -3.7160    -2.3430 ca         1 075      -0.110000
     52 C35          7.1070    -2.7070     1.3690 c5         1 075       0.154300
     53 C36          6.1020    -4.2020    -0.1830 ca         1 075      -0.082300
     54 C37          5.9260    -5.1910    -1.1360 ca         1 075      -0.097000
     55 C38          5.0840    -4.9400    -2.2170 ca         1 075      -0.106000
     56 C39          6.9420    -4.2030     1.0650 c5         1 075      -0.064100
     57 H           -6.3480    -3.9460    -3.5550 h4         1 075       0.021100
     58 H1          -5.5620    -2.0190    -2.2570 ha         1 075       0.145000
     59 H4          -7.6660    -5.9210    -0.2020 h4         1 075       0.018100
     60 H6          -5.6130    -1.1000     2.5130 ha         1 075       0.117000
     61 H7          -6.6610    -3.0780     3.4900 ha         1 075       0.114000
     62 H8          -7.4290    -4.9480     2.0710 ha         1 075       0.120000
     63 H91         -3.8760    -0.1750     1.3310 h1         1 075       0.064200
     64 H92         -5.3230     0.8320     1.1650 h1         1 075       0.064200
     65 H21         -2.5820     3.0470    -1.4550 h1         1 075       0.113700
     66 H111        -2.6340     4.6320     1.1760 h1         1 075       0.111200
     67 H112        -2.1840     5.2780    -0.4140 h1         1 075       0.111200
     68 H281        -4.0140     7.1510    -0.5430 h1         1 075       0.105367
     69 H282        -5.7070     6.8360    -0.0770 h1         1 075       0.105367
     70 H283        -4.4170     6.7380     1.1500 h1         1 075       0.105367
     71 HN1         -3.1200     2.1070     1.2960 hn         1 075       0.330500
     72 HN2         -0.8930     1.6140    -1.7220 hn         1 075       0.338500
     73 H14          1.8770     3.3340    -1.2260 h1         1 075       0.090700
     74 H151         0.8480    -0.1360    -2.2600 hc         1 075       0.067700
     75 H152         1.9910    -0.4520    -0.9640 hc         1 075       0.067700
     76 H25         -2.7020    -2.9140     1.4740 ha         1 075       0.113000
     77 H13          1.2040     1.4710     0.3030 h1         1 075       0.089700
     78 HO1          2.4040     1.4950    -3.2300 ho         1 075       0.469000
     79 H23         -1.3300    -1.0820    -2.1410 ha         1 075       0.123000
     80 H27          1.0280    -0.8100     1.4170 ha         1 075       0.123000
     81 H24         -3.0130    -2.4040    -0.9300 ha         1 075       0.117500
     82 H26         -0.6750    -2.1030     2.6430 ha         1 075       0.117500
     83 H17          5.9360     1.6540    -0.2720 h1         1 075       0.091700
     84 H191         2.2640     3.1030     1.0150 h2         1 075       0.086700
     85 H192         3.5360     4.2440     0.5580 h2         1 075       0.086700
     86 H291         5.8820     4.2580     0.5430 hc         1 075       0.050367
     87 H292         6.7360     4.2580     2.0860 hc         1 075       0.050367
     88 H293         7.3570     3.3130     0.7290 hc         1 075       0.050367
     89 H301         7.3940     1.2530     2.2400 hc         1 075       0.050367
     90 H302         6.7770     2.2520     3.5470 hc         1 075       0.050367
     91 H303         5.9360     0.7660     3.1150 hc         1 075       0.050367
     92 HN4          6.7100    -0.3550     0.1940 hn         1 075       0.334500
     93 HO7          8.9810    -2.3920     0.9640 ho         1 075       0.447000
     94 H31          5.0270    -2.2620     1.6530 h1         1 075       0.089700
     95 H33          4.1230    -1.7620    -1.4890 ha         1 075       0.130000
     96 H34          3.7930    -3.5330    -3.1950 ha         1 075       0.115000
     97 H35          7.2550    -2.5150     2.4370 h1         1 075       0.044700
     98 H37          6.4390    -6.1410    -1.0530 ha         1 075       0.112000
     99 H38          4.9400    -5.7030    -2.9720 ha         1 075       0.112000
    100 H391         6.4080    -4.6920     1.8860 hc         1 075       0.059700
    101 H392         7.8990    -4.7180     0.9550 hc         1 075       0.059700
@<TRIPOS>BOND
     1     1     2 ar  
     2     1    12 ar  
     3     1    57 1   
     4     2     3 ar  
     5     2    58 1   
     6     3     4 ar  
     7     3     6 ar  
     8     4     5 ar  
     9     4     9 ar  
    10     5    12 ar  
    11     5    59 1   
    12     6     7 ar  
    13     6    13 1   
    14     7     8 ar  
    15     7    60 1   
    16     8     9 ar  
    17     8    61 1   
    18     9    62 1   
    19    10    11 1   
    20    10    13 1   
    21    10    63 1   
    22    10    64 1   
    23    11    14 2   
    24    11    23 1   
    25    15    16 2   
    26    15    17 1   
    27    15    25 1   
    28    17    18 1   
    29    17    23 1   
    30    17    65 1   
    31    18    19 1   
    32    18    66 1   
    33    18    67 1   
    34    19    20 2   
    35    19    21 1   
    36    19    22 2   
    37    21    68 1   
    38    21    69 1   
    39    21    70 1   
    40    23    71 1   
    41    24    26 2   
    42    24    27 1   
    43    24    38 1   
    44    25    31 1   
    45    25    72 1   
    46    27    31 1   
    47    27    32 1   
    48    27    73 1   
    49    28    29 1   
    50    28    33 ar  
    51    28    34 ar  
    52    29    31 1   
    53    29    74 1   
    54    29    75 1   
    55    30    35 ar  
    56    30    36 ar  
    57    30    76 1   
    58    31    77 1   
    59    32    78 1   
    60    33    35 ar  
    61    33    79 1   
    62    34    36 ar  
    63    34    80 1   
    64    35    81 1   
    65    36    82 1   
    66    37    39 2   
    67    37    40 1   
    68    37    46 1   
    69    38    40 1   
    70    38    42 1   
    71    40    41 1   
    72    40    83 1   
    73    41    43 1   
    74    41    44 1   
    75    41    45 1   
    76    42    45 1   
    77    42    84 1   
    78    42    85 1   
    79    43    86 1   
    80    43    87 1   
    81    43    88 1   
    82    44    89 1   
    83    44    90 1   
    84    44    91 1   
    85    46    48 1   
    86    46    92 1   
    87    47    52 1   
    88    47    93 1   
    89    48    49 1   
    90    48    52 1   
    91    48    94 1   
    92    49    50 ar  
    93    49    53 ar  
    94    50    51 ar  
    95    50    95 1   
    96    51    55 ar  
    97    51    96 1   
    98    52    56 1   
    99    52    97 1   
   100    53    54 ar  
   101    53    56 1   
   102    54    55 ar  
   103    54    98 1   
   104    55    99 1   
   105    56   100 1   
   106    56   101 1   
@<TRIPOS>SUBSTRUCTURE
     1 075         1 TEMP              0 ****  ****    0 ROOT
