@<TRIPOS>MOLECULE
075
  101   106     1     0     0
SMALL
No Charge or Current Charge


@<TRIPOS>ATOM
      1 C           -8.4670    -2.1710    -4.1120 ca         1 075       0.307900
      2 C1          -7.5620    -1.6320    -3.1820 ca         1 075      -0.119000
      3 C2          -7.3650    -2.2890    -1.9500 ca         1 075      -0.032000
      4 C3          -8.0980    -3.4700    -1.7110 ca         1 075      -0.069000
      5 C4          -8.9860    -3.9360    -2.7050 ca         1 075       0.348900
      6 C5          -6.4690    -1.8000    -0.9720 ca         1 075       0.153100
      7 C6          -6.3180    -2.5060     0.2440 ca         1 075      -0.203000
      8 C7          -7.0520    -3.6830     0.4760 ca         1 075      -0.072000
      9 C8          -7.9400    -4.1660    -0.4980 ca         1 075      -0.120000
     10 C9          -4.8100    -0.0850    -0.2970 c3         1 075       0.075600
     11 C10         -4.1320     1.1940    -0.8330 c          1 075       0.616100
     12 N           -9.1730    -3.3030    -3.8880 nb         1 075      -0.655000
     13 O           -5.7610    -0.6410    -1.2340 os         1 075      -0.310100
     14 O2          -4.3930     1.7020    -1.9170 o          1 075      -0.556100
     15 C12         -0.8990     2.7450    -0.3430 c          1 075       0.592100
     16 O5          -0.0690     3.6390    -0.2410 o          1 075      -0.620100
     17 C21         -2.4390     2.9960    -0.2270 c3         1 075       0.059700
     18 C11         -2.7930     4.0130     0.8920 c3         1 075      -0.308400
     19 S           -4.4740     4.6560     0.7930 s6         1 075       1.083000
     20 O8          -5.4060     3.5780     1.1440 o          1 075      -0.512000
     21 C28         -4.5540     5.8870     2.0900 c3         1 075      -0.335100
     22 O6          -4.6200     5.3510    -0.4910 o          1 075      -0.512000
     23 N1          -3.1740     1.7280     0.0090 ns         1 075      -0.524900
     24 C16          3.2040     1.0190    -1.4610 c          1 075       0.577100
     25 N2          -0.5210     1.4280    -0.4900 ns         1 075      -0.476900
     26 O3           3.7100     0.0320    -1.9860 o          1 075      -0.614100
     27 C14          1.6920     1.3260    -1.6830 c3         1 075       0.087300
     28 C22         -0.1450    -0.9870     0.9690 ca         1 075      -0.088300
     29 C15          0.8480    -0.6030    -0.1260 c3         1 075      -0.047100
     30 C25         -2.0130    -1.6460     2.9780 ca         1 075      -0.121000
     31 C13          0.8550     0.9220    -0.4270 c3         1 075       0.088700
     32 O1           1.1830     0.6690    -2.8760 oh         1 075      -0.645000
     33 C23         -1.2550    -1.8050     0.6700 ca         1 075      -0.104500
     34 C27          0.0240    -0.5070     2.2830 ca         1 075      -0.104500
     35 C24         -2.1840    -2.1340     1.6730 ca         1 075      -0.112500
     36 C26         -0.9080    -0.8340     3.2830 ca         1 075      -0.112500
     37 C20          5.3280     0.2300     0.7460 c          1 075       0.601100
     38 N3           3.9850     1.8650    -0.6440 n          1 075      -0.389800
     39 O4           4.4160    -0.0750     1.5060 o          1 075      -0.595100
     40 C17          5.3690     1.4530    -0.2260 c5         1 075       0.028700
     41 C18          6.0170     2.7180     0.4650 c5         1 075       0.094000
     42 C19          3.5190     3.1850    -0.1540 c5         1 075       0.229000
     43 C29          6.6480     3.6840    -0.5730 c3         1 075      -0.082600
     44 C30          7.0900     2.4260     1.5510 c3         1 075      -0.082600
     45 S1           4.6030     3.5680     1.2880 ss         1 075      -0.388000
     46 N4           6.4740    -0.5240     0.5870 ns         1 075      -0.480900
     47 O7           8.9710    -1.3750     0.4380 oh         1 075      -0.661000
     48 C31          6.6350    -1.7390     1.3900 c5         1 075       0.160000
     49 C32          6.2280    -3.0150     0.6960 ca         1 075      -0.106300
     50 C33          5.0160    -3.2650     0.0280 ca         1 075      -0.071000
     51 C34          4.8090    -4.5310    -0.5530 ca         1 075      -0.110000
     52 C35          8.2170    -1.9510     1.5220 c5         1 075       0.154300
     53 C36          7.2010    -3.9890     0.7880 ca         1 075      -0.082300
     54 C37          7.0100    -5.2580     0.2180 ca         1 075      -0.097000
     55 C38          5.8040    -5.5260    -0.4590 ca         1 075      -0.106000
     56 C39          8.4100    -3.5200     1.5560 c5         1 075      -0.064100
     57 H           -8.6330    -1.6790    -5.0700 h4         1 075       0.021100
     58 H1          -7.0280    -0.7190    -3.4280 ha         1 075       0.145000
     59 H4          -9.5660    -4.8450    -2.5500 h4         1 075       0.018100
     60 H6          -5.6420    -2.1600     1.0190 ha         1 075       0.117000
     61 H7          -6.9320    -4.2220     1.4140 ha         1 075       0.114000
     62 H8          -8.5040    -5.0770    -0.3090 ha         1 075       0.120000
     63 H91         -4.0150    -0.8090    -0.0820 h1         1 075       0.064200
     64 H92         -5.3030     0.1770     0.6480 h1         1 075       0.064200
     65 H21         -2.7300     3.4130    -1.2020 h1         1 075       0.113700
     66 H111        -2.6770     3.5670     1.8860 h1         1 075       0.111200
     67 H112        -2.1470     4.8940     0.8170 h1         1 075       0.111200
     68 H281        -3.7980     6.6500     1.8750 h1         1 075       0.105367
     69 H282        -5.5610     6.3160     2.0770 h1         1 075       0.105367
     70 H283        -4.3520     5.3830     3.0410 h1         1 075       0.105367
     71 HN1         -3.0390     1.2540     0.8970 hn         1 075       0.330500
     72 HN2         -1.2730     0.7560    -0.5690 hn         1 075       0.338500
     73 H14          1.6130     2.4120    -1.8160 h1         1 075       0.090700
     74 H151         0.6140    -1.1550    -1.0450 hc         1 075       0.067700
     75 H152         1.8570    -0.9190     0.1650 hc         1 075       0.067700
     76 H25         -2.7320    -1.9000     3.7530 ha         1 075       0.113000
     77 H13          1.3150     1.4000     0.4480 h1         1 075       0.089700
     78 HO1          1.8520    -0.0150    -3.1150 ho         1 075       0.469000
     79 H23         -1.4000    -2.1860    -0.3380 ha         1 075       0.123000
     80 H27          0.8770     0.1220     2.5290 ha         1 075       0.123000
     81 H24         -3.0350    -2.7690     1.4370 ha         1 075       0.117500
     82 H26         -0.7720    -0.4570     4.2950 ha         1 075       0.117500
     83 H17          5.9580     1.1560    -1.1040 h1         1 075       0.091700
     84 H191         2.4740     3.1200     0.1670 h2         1 075       0.086700
     85 H192         3.6690     3.9110    -0.9620 h2         1 075       0.086700
     86 H291         5.9450     3.9460    -1.3720 hc         1 075       0.050367
     87 H292         6.9730     4.6200    -0.1020 hc         1 075       0.050367
     88 H293         7.5250     3.2310    -1.0500 hc         1 075       0.050367
     89 H301         7.9400     1.8720     1.1360 hc         1 075       0.050367
     90 H302         7.4820     3.3570     1.9770 hc         1 075       0.050367
     91 H303         6.6810     1.8450     2.3870 hc         1 075       0.050367
     92 HN4          7.1880    -0.2100    -0.0590 hn         1 075       0.334500
     93 HO7          9.9140    -1.6010     0.5950 ho         1 075       0.447000
     94 H31          6.1690    -1.6740     2.3830 h1         1 075       0.089700
     95 H33          4.2510    -2.4960    -0.0400 ha         1 075       0.130000
     96 H34          3.8780    -4.7410    -1.0750 ha         1 075       0.115000
     97 H35          8.5690    -1.5090     2.4650 h1         1 075       0.044700
     98 H37          7.7800    -6.0220     0.2980 ha         1 075       0.112000
     99 H38          5.6400    -6.5030    -0.9070 ha         1 075       0.112000
    100 H391         8.3940    -3.8980     2.5840 hc         1 075       0.059700
    101 H392         9.3560    -3.8410     1.1050 hc         1 075       0.059700
@<TRIPOS>BOND
     1     1     2 ar  
     2     1    12 ar  
     3     1    57 1   
     4     2     3 ar  
     5     2    58 1   
     6     3     4 ar  
     7     3     6 ar  
     8     4     5 ar  
     9     4     9 ar  
    10     5    12 ar  
    11     5    59 1   
    12     6     7 ar  
    13     6    13 1   
    14     7     8 ar  
    15     7    60 1   
    16     8     9 ar  
    17     8    61 1   
    18     9    62 1   
    19    10    11 1   
    20    10    13 1   
    21    10    63 1   
    22    10    64 1   
    23    11    14 2   
    24    11    23 1   
    25    15    16 2   
    26    15    17 1   
    27    15    25 1   
    28    17    18 1   
    29    17    23 1   
    30    17    65 1   
    31    18    19 1   
    32    18    66 1   
    33    18    67 1   
    34    19    20 2   
    35    19    21 1   
    36    19    22 2   
    37    21    68 1   
    38    21    69 1   
    39    21    70 1   
    40    23    71 1   
    41    24    26 2   
    42    24    27 1   
    43    24    38 1   
    44    25    31 1   
    45    25    72 1   
    46    27    31 1   
    47    27    32 1   
    48    27    73 1   
    49    28    29 1   
    50    28    33 ar  
    51    28    34 ar  
    52    29    31 1   
    53    29    74 1   
    54    29    75 1   
    55    30    35 ar  
    56    30    36 ar  
    57    30    76 1   
    58    31    77 1   
    59    32    78 1   
    60    33    35 ar  
    61    33    79 1   
    62    34    36 ar  
    63    34    80 1   
    64    35    81 1   
    65    36    82 1   
    66    37    39 2   
    67    37    40 1   
    68    37    46 1   
    69    38    40 1   
    70    38    42 1   
    71    40    41 1   
    72    40    83 1   
    73    41    43 1   
    74    41    44 1   
    75    41    45 1   
    76    42    45 1   
    77    42    84 1   
    78    42    85 1   
    79    43    86 1   
    80    43    87 1   
    81    43    88 1   
    82    44    89 1   
    83    44    90 1   
    84    44    91 1   
    85    46    48 1   
    86    46    92 1   
    87    47    52 1   
    88    47    93 1   
    89    48    49 1   
    90    48    52 1   
    91    48    94 1   
    92    49    50 ar  
    93    49    53 ar  
    94    50    51 ar  
    95    50    95 1   
    96    51    55 ar  
    97    51    96 1   
    98    52    56 1   
    99    52    97 1   
   100    53    54 ar  
   101    53    56 1   
   102    54    55 ar  
   103    54    98 1   
   104    55    99 1   
   105    56   100 1   
   106    56   101 1   
@<TRIPOS>SUBSTRUCTURE
     1 075         1 TEMP              0 ****  ****    0 ROOT
