@<TRIPOS>MOLECULE
076
   74    77     1     0     0
SMALL
abcg2


@<TRIPOS>ATOM
      1 C1          -3.3110    -1.2270     0.4430 c          1 076       0.605100
      2 O1          -3.5720    -1.3040     1.6280 o          1 076      -0.574100
      3 C2          -4.3630    -0.8830    -0.6010 c3         1 076       0.075600
      4 O2          -5.4390    -0.2830     0.0650 os         1 076      -0.318100
      5 C3          -6.4920     0.1440    -0.6640 ca         1 076       0.136100
      6 C4          -7.5180     0.7620     0.0530 ca         1 076      -0.169500
      7 C5          -8.6410     1.2280    -0.6080 ca         1 076      -0.074000
      8 C6          -8.7590     1.0910    -1.9880 ca         1 076      -0.146000
      9 C7          -7.7370     0.4780    -2.6940 ca         1 076      -0.074000
     10 C8          -6.6020     0.0020    -2.0450 ca         1 076      -0.169500
     11 N1          -2.0990    -1.4630    -0.0900 ns         1 076      -0.493900
     12 C9          -0.9020    -1.6190     0.7010 c3         1 076       0.031700
     13 C13          0.0870    -0.5520     0.2380 c          1 076       0.584100
     14 O3           0.2140    -0.2790    -0.9440 o          1 076      -0.589100
     15 C10         -0.3060    -3.0390     0.6390 c3         1 076      -0.058700
     16 C11         -1.3000    -4.0400     1.2190 c3         1 076      -0.089600
     17 C12          0.1310    -3.4610    -0.7590 c3         1 076      -0.089600
     18 C27          8.3360    -0.0960    -0.3480 ca         1 076      -0.098500
     19 C28          9.2080     0.1120    -1.4090 ca         1 076      -0.110500
     20 C29          8.8730    -0.3290    -2.6820 ca         1 076      -0.107000
     21 C30          7.6620    -0.9790    -2.8850 ca         1 076      -0.110500
     22 C31          6.7920    -1.1820    -1.8230 ca         1 076      -0.098500
     23 C26          7.1190    -0.7450    -0.5410 ca         1 076      -0.083300
     24 C24          5.1770     0.2220     0.6670 cx         1 076       0.098300
     25 O5           4.1770     0.2700    -0.3420 op         1 076      -0.421000
     26 C23          3.7690     0.0290     0.9930 cx         1 076       0.050300
     27 C22          2.9590     1.1220     1.6500 c3         1 076       0.175300
     28 O4           2.9200     0.9290     3.0450 oh         1 076      -0.710000
     29 C14          1.5670     1.2410     1.0230 c3         1 076       0.072700
     30 C15          0.7940     2.4610     1.5490 c3         1 076      -0.048100
     31 C16         -0.5680     2.5570     0.9200 ca         1 076      -0.090300
     32 C17         -0.7240     3.0920    -0.3560 ca         1 076      -0.104500
     33 C18         -1.9680     3.1190    -0.9700 ca         1 076      -0.108000
     34 C19         -3.0800     2.6040    -0.3150 ca         1 076      -0.116000
     35 C20         -2.9390     2.0720     0.9590 ca         1 076      -0.108000
     36 C21         -1.6910     2.0520     1.5690 ca         1 076      -0.104500
     37 N2           0.7930     0.0340     1.2250 ns         1 076      -0.492900
     38 H30         -3.9330    -0.2150    -1.3560 h1         1 076       0.053200
     39 H31         -4.6670    -1.8040    -1.1140 h1         1 076       0.053200
     40 H32         -7.4270     0.8710     1.1260 ha         1 076       0.122500
     41 H33         -9.4300     1.7050    -0.0410 ha         1 076       0.113000
     42 H34         -9.6380     1.4580    -2.5020 ha         1 076       0.116000
     43 H35         -7.8120     0.3610    -3.7670 ha         1 076       0.113000
     44 H36         -5.8250    -0.4720    -2.6290 ha         1 076       0.122500
     45 H29         -1.9650    -1.2770    -1.0730 hn         1 076       0.331500
     46 H21         -1.1770    -1.4280     1.7400 h1         1 076       0.081700
     47 H22          0.5770    -3.0250     1.2880 hc         1 076       0.046700
     48 H26         -2.1820    -4.1330     0.5830 hc         1 076       0.040367
     49 H27         -0.8430    -5.0280     1.2940 hc         1 076       0.040367
     50 H28         -1.6340    -3.7480     2.2150 hc         1 076       0.040367
     51 H23          0.9370    -2.8420    -1.1510 hc         1 076       0.040367
     52 H24          0.4900    -4.4910    -0.7380 hc         1 076       0.040367
     53 H25         -0.7000    -3.4220    -1.4660 hc         1 076       0.040367
     54 H2          10.1510     0.6160    -1.2390 ha         1 076       0.112500
     55 H3           9.5510    -0.1710    -3.5110 ha         1 076       0.112000
     56 H4           7.3930    -1.3280    -3.8740 ha         1 076       0.112500
     57 H5           5.8510    -1.6940    -1.9910 ha         1 076       0.113000
     58 H8           5.6220     1.1910     0.8980 h1         1 076       0.090700
     59 H9           3.4230    -0.9880     1.1860 h1         1 076       0.087700
     60 H10          3.4660     2.0790     1.4870 h1         1 076       0.087700
     61 H11          2.6630     0.0210     3.2370 ho         1 076       0.503000
     62 H12          1.7060     1.3580    -0.0520 h1         1 076       0.104700
     63 H13          0.7050     2.3960     2.6360 hc         1 076       0.059700
     64 H14          1.3810     3.3570     1.3300 hc         1 076       0.059700
     65 H15          0.1390     3.4920    -0.8770 ha         1 076       0.110500
     66 H16         -2.0710     3.5420    -1.9610 ha         1 076       0.121500
     67 H17         -4.0520     2.6290    -0.7920 ha         1 076       0.115000
     68 H18         -3.7990     1.6670     1.4760 ha         1 076       0.121500
     69 H19         -1.5920     1.6360     2.5660 ha         1 076       0.110500
     70 H20          0.4990    -0.1650     2.1690 hn         1 076       0.305500
     71 C25          6.1530    -0.9220     0.5990 c3         1 076      -0.022100
     72 H1           8.6090     0.2450     0.6440 ha         1 076       0.113000
     73 H6           5.6110    -1.8660     0.4990 hc         1 076       0.058200
     74 H7           6.6920    -0.9620     1.5490 hc         1 076       0.058200
@<TRIPOS>BOND
     1     1     2 2   
     2     1     3 1   
     3     1    11 1   
     4     3     4 1   
     5     3    38 1   
     6     3    39 1   
     7     4     5 1   
     8     5     6 ar  
     9     5    10 ar  
    10     6     7 ar  
    11     6    40 1   
    12     7     8 ar  
    13     7    41 1   
    14     8     9 ar  
    15     8    42 1   
    16     9    10 ar  
    17     9    43 1   
    18    10    44 1   
    19    11    12 1   
    20    11    45 1   
    21    12    13 1   
    22    12    15 1   
    23    12    46 1   
    24    13    14 2   
    25    13    37 1   
    26    15    16 1   
    27    15    17 1   
    28    15    47 1   
    29    16    48 1   
    30    16    49 1   
    31    16    50 1   
    32    17    51 1   
    33    17    52 1   
    34    17    53 1   
    35    18    19 ar  
    36    18    23 ar  
    37    18    72 1   
    38    19    20 ar  
    39    19    54 1   
    40    20    21 ar  
    41    20    55 1   
    42    21    22 ar  
    43    21    56 1   
    44    22    23 ar  
    45    22    57 1   
    46    23    71 1   
    47    24    25 1   
    48    24    26 1   
    49    24    58 1   
    50    24    71 1   
    51    25    26 1   
    52    26    27 1   
    53    26    59 1   
    54    27    28 1   
    55    27    29 1   
    56    27    60 1   
    57    28    61 1   
    58    29    30 1   
    59    29    37 1   
    60    29    62 1   
    61    30    31 1   
    62    30    63 1   
    63    30    64 1   
    64    31    32 ar  
    65    31    36 ar  
    66    32    33 ar  
    67    32    65 1   
    68    33    34 ar  
    69    33    66 1   
    70    34    35 ar  
    71    34    67 1   
    72    35    36 ar  
    73    35    68 1   
    74    36    69 1   
    75    37    70 1   
    76    71    73 1   
    77    71    74 1   
@<TRIPOS>SUBSTRUCTURE
     1 076         1 TEMP              0 ****  ****    0 ROOT
