@<TRIPOS>MOLECULE
076
   74    77     1     0     0
SMALL
No Charge or Current Charge


@<TRIPOS>ATOM
      1 C1          -3.5110    -0.8700     0.2640 c          1 076       0.605100
      2 O1          -3.9940    -0.6880     1.3750 o          1 076      -0.574100
      3 C2          -4.3430    -1.2540    -0.9820 c3         1 076       0.075600
      4 O2          -5.7540    -1.3790    -0.6870 os         1 076      -0.318100
      5 C3          -6.6810    -1.7160    -1.6520 ca         1 076       0.136100
      6 C4          -8.0280    -1.8120    -1.2630 ca         1 076      -0.169500
      7 C5          -9.0180    -2.1520    -2.2010 ca         1 076      -0.074000
      8 C6          -8.6600    -2.3980    -3.5370 ca         1 076      -0.146000
      9 C7          -7.3160    -2.3040    -3.9350 ca         1 076      -0.074000
     10 C8          -6.3250    -1.9640    -2.9970 ca         1 076      -0.169500
     11 N1          -2.1560    -0.7380     0.0270 ns         1 076      -0.493900
     12 C9          -1.1360    -0.3830     1.0450 c3         1 076       0.031700
     13 C13         -0.0990     0.6080     0.4380 c          1 076       0.584100
     14 O3          -0.0400     0.8640    -0.7580 o          1 076      -0.589100
     15 C10         -0.4530    -1.6480     1.6570 c3         1 076      -0.058700
     16 C11         -1.4420    -2.5350     2.4500 c3         1 076      -0.089600
     17 C12          0.3240    -2.4840     0.6080 c3         1 076      -0.089600
     18 C27          7.0840    -2.4760    -0.8780 ca         1 076      -0.098500
     19 C28          8.3680    -2.7750    -1.3670 ca         1 076      -0.110500
     20 C29          8.7630    -2.3130    -2.6340 ca         1 076      -0.107000
     21 C30          7.8740    -1.5530    -3.4120 ca         1 076      -0.110500
     22 C31          6.5900    -1.2540    -2.9230 ca         1 076      -0.098500
     23 C26          6.1870    -1.7160    -1.6540 ca         1 076      -0.083300
     24 C24          4.7480    -0.0240    -0.4470 cx         1 076       0.098300
     25 O5           4.3600     1.1030    -1.2640 op         1 076      -0.421000
     26 C23          3.4290     0.6690    -0.2410 cx         1 076       0.050300
     27 C22          3.2280     1.6030     0.9570 c3         1 076       0.175300
     28 O4           3.5560     0.9260     2.1870 oh         1 076      -0.710000
     29 C14          1.7860     2.1970     1.0250 c3         1 076       0.072700
     30 C15          1.6710     3.3930     2.0020 c3         1 076      -0.048100
     31 C16          0.2600     3.9740     2.0550 ca         1 076      -0.090300
     32 C17         -0.2490     4.6970     0.9590 ca         1 076      -0.104500
     33 C18         -1.5540     5.2180     0.9980 ca         1 076      -0.108000
     34 C19         -2.3580     5.0200     2.1330 ca         1 076      -0.116000
     35 C20         -1.8550     4.3010     3.2300 ca         1 076      -0.108000
     36 C21         -0.5500     3.7800     3.1920 ca         1 076      -0.104500
     37 N2           0.7680     1.1790     1.3500 ns         1 076      -0.492900
     38 H30         -4.1740    -0.4800    -1.7420 h1         1 076       0.053200
     39 H31         -3.9430    -2.2020    -1.3640 h1         1 076       0.053200
     40 H32         -8.3040    -1.6220    -0.2290 ha         1 076       0.122500
     41 H33        -10.0590    -2.2240    -1.8930 ha         1 076       0.113000
     42 H34         -9.4250    -2.6610    -4.2650 ha         1 076       0.116000
     43 H35         -7.0420    -2.4950    -4.9710 ha         1 076       0.113000
     44 H36         -5.2930    -1.8990    -3.3300 ha         1 076       0.122500
     45 H29         -1.8450    -0.8630    -0.9310 hn         1 076       0.331500
     46 H21         -1.6290     0.1670     1.8570 h1         1 076       0.081700
     47 H22          0.2860    -1.2970     2.3890 hc         1 076       0.046700
     48 H26         -2.1800    -2.9990     1.7840 hc         1 076       0.040367
     49 H27         -0.9070    -3.3370     2.9720 hc         1 076       0.040367
     50 H28         -1.9780    -1.9430     3.2020 hc         1 076       0.040367
     51 H23          1.0860    -1.8790     0.1030 hc         1 076       0.040367
     52 H24          0.8350    -3.3260     1.0900 hc         1 076       0.040367
     53 H25         -0.3530    -2.8910    -0.1530 hc         1 076       0.040367
     54 H2           9.0560    -3.3620    -0.7630 ha         1 076       0.112500
     55 H3           9.7570    -2.5440    -3.0120 ha         1 076       0.112000
     56 H4           8.1790    -1.1930    -4.3920 ha         1 076       0.112500
     57 H5           5.9080    -0.6620    -3.5290 ha         1 076       0.113000
     58 H8           5.5500     0.1680     0.2670 h1         1 076       0.090700
     59 H9           2.5300     0.1790    -0.6120 h1         1 076       0.087700
     60 H10          3.9180     2.4480     0.8170 h1         1 076       0.087700
     61 H11          2.9210     0.1830     2.2840 ho         1 076       0.503000
     62 H12          1.5650     2.5960     0.0250 h1         1 076       0.104700
     63 H13          1.9880     3.0750     3.0030 hc         1 076       0.059700
     64 H14          2.3780     4.1740     1.6960 hc         1 076       0.059700
     65 H15          0.3640     4.8530     0.0750 ha         1 076       0.110500
     66 H16         -1.9420     5.7750     0.1470 ha         1 076       0.121500
     67 H17         -3.3680     5.4230     2.1630 ha         1 076       0.115000
     68 H18         -2.4760     4.1460     4.1100 ha         1 076       0.121500
     69 H19         -0.1720     3.2210     4.0460 ha         1 076       0.110500
     70 H20          0.6090     0.9580     2.3260 hn         1 076       0.305500
     71 C25          4.7970    -1.3870    -1.1260 c3         1 076      -0.022100
     72 H1           6.7870    -2.8360     0.1050 ha         1 076       0.113000
     73 H6           4.0700    -1.4220    -1.9470 hc         1 076       0.058200
     74 H7           4.4740    -2.1540    -0.4110 hc         1 076       0.058200
@<TRIPOS>BOND
     1     1     2 2   
     2     1     3 1   
     3     1    11 1   
     4     3     4 1   
     5     3    38 1   
     6     3    39 1   
     7     4     5 1   
     8     5     6 ar  
     9     5    10 ar  
    10     6     7 ar  
    11     6    40 1   
    12     7     8 ar  
    13     7    41 1   
    14     8     9 ar  
    15     8    42 1   
    16     9    10 ar  
    17     9    43 1   
    18    10    44 1   
    19    11    12 1   
    20    11    45 1   
    21    12    13 1   
    22    12    15 1   
    23    12    46 1   
    24    13    14 2   
    25    13    37 1   
    26    15    16 1   
    27    15    17 1   
    28    15    47 1   
    29    16    48 1   
    30    16    49 1   
    31    16    50 1   
    32    17    51 1   
    33    17    52 1   
    34    17    53 1   
    35    18    19 ar  
    36    18    23 ar  
    37    18    72 1   
    38    19    20 ar  
    39    19    54 1   
    40    20    21 ar  
    41    20    55 1   
    42    21    22 ar  
    43    21    56 1   
    44    22    23 ar  
    45    22    57 1   
    46    23    71 1   
    47    24    25 1   
    48    24    26 1   
    49    24    58 1   
    50    24    71 1   
    51    25    26 1   
    52    26    27 1   
    53    26    59 1   
    54    27    28 1   
    55    27    29 1   
    56    27    60 1   
    57    28    61 1   
    58    29    30 1   
    59    29    37 1   
    60    29    62 1   
    61    30    31 1   
    62    30    63 1   
    63    30    64 1   
    64    31    32 ar  
    65    31    36 ar  
    66    32    33 ar  
    67    32    65 1   
    68    33    34 ar  
    69    33    66 1   
    70    34    35 ar  
    71    34    67 1   
    72    35    36 ar  
    73    35    68 1   
    74    36    69 1   
    75    37    70 1   
    76    71    73 1   
    77    71    74 1   
@<TRIPOS>SUBSTRUCTURE
     1 076         1 TEMP              0 ****  ****    0 ROOT
