@<TRIPOS>MOLECULE
077
   37    38     1     0     0
SMALL
No Charge or Current Charge


@<TRIPOS>ATOM
      1 C1           6.2060    -0.4330    -1.5160 ca         1 077      -0.114000
      2 C2           5.1250     0.8880     0.7110 ca         1 077      -0.104000
      3 C3           4.8370    -0.5540    -1.2210 ca         1 077      -0.104000
      4 C4           7.0350     0.3490    -0.6970 ca         1 077      -0.119000
      5 C5           6.4940     1.0090     0.4170 ca         1 077      -0.114000
      6 C6           4.2660     0.1040    -0.1010 cp         1 077      -0.015000
      7 C8           2.8060    -0.0250     0.2120 cp         1 077      -0.060000
      8 O1          -4.2380    -1.4600     0.5250 oh         1 077      -0.655000
      9 C10          2.1050    -1.2320    -0.0390 ca         1 077      -0.099000
     10 C11          0.7080     0.9350     1.0630 ca         1 077      -0.113500
     11 C12         -2.3390    -0.0710    -0.1020 c3         1 077      -0.111400
     12 C20         -3.8610    -0.1240     0.1830 c3         1 077       0.180300
     13 C13          0.0300    -0.2710     0.8100 ca         1 077      -0.050300
     14 C14          2.0770     1.0550     0.7700 ca         1 077      -0.099000
     15 C60          0.7370    -1.3530     0.2560 ca         1 077      -0.113500
     16 C16         -1.4550    -0.4020     1.1240 c3         1 077      -0.036100
     17 C17         -4.7040     0.3120    -1.0310 c3         1 077      -0.236400
     18 C18         -6.1780     0.3640    -0.6250 c          1 077       0.725000
     19 O3          -6.6240     1.4170    -0.1980 o          1 077      -0.736000
     20 O4          -6.8040    -0.6840    -0.6450 o          1 077      -0.736000
     21 H1           6.6230    -0.9430    -2.3820 ha         1 077       0.106500
     22 H3           4.2100    -1.1530    -1.8770 ha         1 077       0.115000
     23 H4           8.0950     0.4430    -0.9250 ha         1 077       0.105000
     24 H2           4.7290     1.3970     1.5860 ha         1 077       0.115000
     25 H5           7.1360     1.6130     1.0560 ha         1 077       0.106500
     26 H10          2.6290    -2.0890    -0.4540 ha         1 077       0.106000
     27 H14          2.5730     2.0030     0.9640 ha         1 077       0.106000
     28 H20         -4.0790     0.5600     1.0170 h1         1 077       0.084700
     29 H60          0.2250    -2.2910     0.0530 ha         1 077       0.115000
     30 H11          0.1730     1.7830     1.4850 ha         1 077       0.115000
     31 H121        -2.0950    -0.7600    -0.9200 hc         1 077       0.034700
     32 H122        -2.0810     0.9360    -0.4520 hc         1 077       0.034700
     33 H161        -1.7250     0.2650     1.9530 hc         1 077       0.053200
     34 H162        -1.6730    -1.4200     1.4680 hc         1 077       0.053200
     35 H171        -4.3510     1.3100    -1.3200 hc         1 077       0.019700
     36 H172        -4.5410    -0.4480    -1.8070 hc         1 077       0.019700
     37 HA          -5.1700    -1.5550     0.2170 ho         1 077       0.421000
@<TRIPOS>BOND
     1     1     3 ar  
     2     1     4 ar  
     3     1    21 1   
     4     2     5 ar  
     5     2     6 ar  
     6     2    24 1   
     7     3     6 ar  
     8     3    22 1   
     9     4     5 ar  
    10     4    23 1   
    11     5    25 1   
    12     6     7 1   
    13     7     9 ar  
    14     7    14 ar  
    15     8    12 1   
    16     8    37 1   
    17     9    15 ar  
    18     9    26 1   
    19    10    13 ar  
    20    10    14 ar  
    21    10    30 1   
    22    11    12 1   
    23    11    16 1   
    24    11    31 1   
    25    11    32 1   
    26    12    17 1   
    27    12    28 1   
    28    13    15 ar  
    29    13    16 1   
    30    14    27 1   
    31    15    29 1   
    32    16    33 1   
    33    16    34 1   
    34    17    18 1   
    35    17    35 1   
    36    17    36 1   
    37    18    19 1   
    38    18    20 1   
@<TRIPOS>SUBSTRUCTURE
     1 077         1 TEMP              0 ****  ****    0 ROOT
