@<TRIPOS>MOLECULE
077
   37    38     1     0     0
SMALL
bcc


@<TRIPOS>ATOM
      1 C1           6.0280    -0.4070    -1.5950 ca         1 077      -0.132000
      2 C2           5.0700     0.7930     0.7100 ca         1 077      -0.122000
      3 C3           4.6840    -0.5050    -1.2680 ca         1 077      -0.122000
      4 C4           6.9000     0.2930    -0.7710 ca         1 077      -0.137000
      5 C5           6.4140     0.8930     0.3830 ca         1 077      -0.132000
      6 C6           4.1820     0.0930    -0.1100 cp         1 077      -0.015000
      7 C8           2.7500    -0.0110     0.2350 cp         1 077      -0.060000
      8 O1          -4.2260    -1.2510     0.8620 oh         1 077      -0.592800
      9 C10          2.0310    -1.1800    -0.0190 ca         1 077      -0.117000
     10 C11          0.7260     0.9580     1.1430 ca         1 077      -0.131500
     11 C12         -2.3160    -0.0420    -0.0470 c3         1 077      -0.111400
     12 C20         -3.8150    -0.0460     0.2360 c3         1 077       0.157100
     13 C13          0.0080    -0.2080     0.8900 ca         1 077      -0.050300
     14 C14          2.0720     1.0560     0.8250 ca         1 077      -0.117000
     15 C60          0.6870    -1.2750     0.3040 ca         1 077      -0.131500
     16 C16         -1.4600    -0.3010     1.1950 c3         1 077      -0.036100
     17 C17         -4.6250     0.2200    -1.0250 c3         1 077      -0.236400
     18 C18         -6.1380     0.3140    -0.7630 c          1 077       0.935600
     19 O3          -6.4930     1.0690     0.1650 o          1 077      -0.841300
     20 O4          -6.8910    -0.3460    -1.5080 o          1 077      -0.841300
     21 H1           6.3940    -0.8730    -2.5020 ha         1 077       0.124500
     22 H3           4.0140    -1.0380    -1.9330 ha         1 077       0.133000
     23 H4           7.9490     0.3690    -1.0260 ha         1 077       0.123000
     24 H2           4.7120     1.2490     1.6250 ha         1 077       0.133000
     25 H5           7.0850     1.4350     1.0370 ha         1 077       0.124500
     26 H10          2.5310    -2.0370    -0.4540 ha         1 077       0.124000
     27 H14          2.5940     1.9850     1.0250 ha         1 077       0.124000
     28 H20         -4.0330     0.7430     0.9620 h1         1 077       0.084700
     29 H60          0.1580    -2.1990     0.1030 ha         1 077       0.133000
     30 H11          0.2250     1.8070     1.5930 ha         1 077       0.133000
     31 H121        -2.0830    -0.7880    -0.8160 hc         1 077       0.034700
     32 H122        -2.0460     0.9300    -0.4720 hc         1 077       0.034700
     33 H161        -1.7210     0.4240     1.9710 hc         1 077       0.053200
     34 H162        -1.6910    -1.2900     1.5960 hc         1 077       0.053200
     35 H171        -4.2920     1.1690    -1.4610 hc         1 077       0.019700
     36 H172        -4.4080    -0.5530    -1.7710 hc         1 077       0.019700
     37 HA          -4.0750    -1.9720     0.2410 ho         1 077       0.382000
@<TRIPOS>BOND
     1     1     3 ar  
     2     1     4 ar  
     3     1    21 1   
     4     2     5 ar  
     5     2     6 ar  
     6     2    24 1   
     7     3     6 ar  
     8     3    22 1   
     9     4     5 ar  
    10     4    23 1   
    11     5    25 1   
    12     6     7 1   
    13     7     9 ar  
    14     7    14 ar  
    15     8    12 1   
    16     8    37 1   
    17     9    15 ar  
    18     9    26 1   
    19    10    13 ar  
    20    10    14 ar  
    21    10    30 1   
    22    11    12 1   
    23    11    16 1   
    24    11    31 1   
    25    11    32 1   
    26    12    17 1   
    27    12    28 1   
    28    13    15 ar  
    29    13    16 1   
    30    14    27 1   
    31    15    29 1   
    32    16    33 1   
    33    16    34 1   
    34    17    18 1   
    35    17    35 1   
    36    17    36 1   
    37    18    19 1   
    38    18    20 1   
@<TRIPOS>SUBSTRUCTURE
     1 077         1 TEMP              0 ****  ****    0 ROOT
