@<TRIPOS>MOLECULE
078
   46    47     1     0     0
SMALL
No Charge or Current Charge


@<TRIPOS>ATOM
      1 C27         -5.1560     0.8430     0.1100 ca         1 078      -0.102500
      2 C28         -6.4420     0.6630     0.6510 ca         1 078      -0.109000
      3 C29         -7.0920    -0.5760     0.5210 ca         1 078      -0.111000
      4 C30         -6.4560    -1.6330    -0.1510 ca         1 078      -0.109000
      5 C31         -5.1710    -1.4530    -0.6920 ca         1 078      -0.102500
      6 C26         -4.5130    -0.2140    -0.5620 ca         1 078      -0.071300
      7 C25         -3.1140    -0.0160    -1.1420 c3         1 078      -0.061100
      8 C24         -2.0180     0.1090    -0.0500 c3         1 078       0.170300
      9 O5          -2.0790    -1.0670     0.7740 oh         1 078      -0.646000
     10 C23         -0.5690     0.2780    -0.6300 c3         1 078       0.108500
     11 N3          -0.4530     1.4270    -1.5770 n8         1 078      -1.012200
     12 C22          0.5220     0.3880     0.4940 c3         1 078       0.137300
     13 O4           0.4460     1.6780     1.1200 oh         1 078      -0.649000
     14 C14          1.9810     0.2720    -0.0570 c3         1 078       0.133500
     15 C15          2.9890    -0.1650     1.0370 c3         1 078      -0.067100
     16 C16          4.4270    -0.2790     0.5360 ca         1 078      -0.089300
     17 C17          4.7760    -1.2780    -0.3950 ca         1 078      -0.111000
     18 C18          6.0990    -1.3880    -0.8570 ca         1 078      -0.106500
     19 C19          7.0830    -0.5010    -0.3890 ca         1 078      -0.109000
     20 C20          6.7430     0.4950     0.5420 ca         1 078      -0.106500
     21 C21          5.4200     0.6040     1.0040 ca         1 078      -0.111000
     22 N2           2.4280     1.5660    -0.6530 n8         1 078      -1.016200
     23 H1          -4.6620     1.8060     0.2140 ha         1 078       0.106500
     24 H2          -6.9330     1.4830     1.1690 ha         1 078       0.110000
     25 H3          -8.0870    -0.7150     0.9390 ha         1 078       0.110000
     26 H4          -6.9590    -2.5920    -0.2530 ha         1 078       0.110000
     27 H5          -4.6880    -2.2790    -1.2100 ha         1 078       0.106500
     28 H6          -2.8560    -0.8440    -1.8140 hc         1 078       0.060200
     29 H7          -3.1120     0.8870    -1.7630 hc         1 078       0.060200
     30 H8          -2.2460     0.9980     0.5560 h1         1 078       0.079700
     31 H9          -3.0310    -1.2230     0.9600 ho         1 078       0.433000
     32 H10         -0.3420    -0.6330    -1.2020 h1         1 078       0.060700
     33 H11         -0.8530     2.2540    -1.1200 hn         1 078       0.412000
     34 H12          0.5500     1.6690    -1.5950 hn         1 078       0.412000
     35 H14          0.3570    -0.4180     1.2230 h1         1 078       0.088700
     36 H15          1.1610     2.1580     0.6340 ho         1 078       0.434000
     37 H16          1.9900    -0.4950    -0.8460 h1         1 078       0.062700
     38 H17          2.9330     0.5350     1.8800 hc         1 078       0.061200
     39 H18          2.6710    -1.1360     1.4370 hc         1 078       0.061200
     40 H19          4.0220    -1.9720    -0.7610 ha         1 078       0.110500
     41 H20          6.3620    -2.1610    -1.5760 ha         1 078       0.114000
     42 H21          8.1070    -0.5860    -0.7470 ha         1 078       0.114000
     43 H22          7.5050     1.1810     0.9060 ha         1 078       0.114000
     44 H23          5.1690     1.3780     1.7270 ha         1 078       0.110500
     45 H24          3.3070     1.8330    -0.1900 hn         1 078       0.404500
     46 H25          2.7550     1.3850    -1.6110 hn         1 078       0.404500
@<TRIPOS>BOND
     1     1     2 ar  
     2     1     6 ar  
     3     1    23 1   
     4     2     3 ar  
     5     2    24 1   
     6     3     4 ar  
     7     3    25 1   
     8     4     5 ar  
     9     4    26 1   
    10     5     6 ar  
    11     5    27 1   
    12     6     7 1   
    13     7     8 1   
    14     7    28 1   
    15     7    29 1   
    16     8     9 1   
    17     8    10 1   
    18     8    30 1   
    19     9    31 1   
    20    10    11 1   
    21    10    12 1   
    22    10    32 1   
    23    11    33 1   
    24    11    34 1   
    25    12    13 1   
    26    12    14 1   
    27    12    35 1   
    28    13    36 1   
    29    14    15 1   
    30    14    22 1   
    31    14    37 1   
    32    15    16 1   
    33    15    38 1   
    34    15    39 1   
    35    16    17 ar  
    36    16    21 ar  
    37    17    18 ar  
    38    17    40 1   
    39    18    19 ar  
    40    18    41 1   
    41    19    20 ar  
    42    19    42 1   
    43    20    21 ar  
    44    20    43 1   
    45    21    44 1   
    46    22    45 1   
    47    22    46 1   
@<TRIPOS>SUBSTRUCTURE
     1 078         1 TEMP              0 ****  ****    0 ROOT
