@<TRIPOS>MOLECULE
078
   46    47     1     0     0
SMALL
abcg2


@<TRIPOS>ATOM
      1 C27         -5.1370     0.9700    -0.1160 ca         1 078      -0.102500
      2 C28         -6.4030     0.7960     0.4280 ca         1 078      -0.109000
      3 C29         -6.9510    -0.4770     0.5230 ca         1 078      -0.111000
      4 C30         -6.2240    -1.5690     0.0690 ca         1 078      -0.109000
      5 C31         -4.9570    -1.3890    -0.4700 ca         1 078      -0.102500
      6 C26         -4.3950    -0.1180    -0.5720 ca         1 078      -0.071300
      7 C25         -3.0150     0.0820    -1.1250 c3         1 078      -0.061100
      8 C24         -1.9490     0.0940    -0.0240 c3         1 078       0.170300
      9 O5          -1.9850    -1.0980     0.7270 oh         1 078      -0.646000
     10 C23         -0.5450     0.3730    -0.5870 c3         1 078       0.108500
     11 N3          -0.5720     1.6160    -1.3470 n8         1 078      -1.012200
     12 C22          0.5310     0.3180     0.5140 c3         1 078       0.137300
     13 O4           0.3890     1.3720     1.4460 oh         1 078      -0.649000
     14 C14          1.9600     0.2460    -0.0500 c3         1 078       0.133500
     15 C15          2.9420    -0.2270     1.0380 c3         1 078      -0.067100
     16 C16          4.3440    -0.3670     0.5190 ca         1 078      -0.089300
     17 C17          4.7120    -1.4840    -0.2320 ca         1 078      -0.111000
     18 C18          5.9920    -1.6050    -0.7530 ca         1 078      -0.106500
     19 C19          6.9320    -0.6050    -0.5320 ca         1 078      -0.109000
     20 C20          6.5800     0.5120     0.2130 ca         1 078      -0.106500
     21 C21          5.2950     0.6290     0.7300 ca         1 078      -0.111000
     22 N2           2.3400     1.5040    -0.6790 n8         1 078      -1.016200
     23 H1          -4.7210     1.9680    -0.1940 ha         1 078       0.106500
     24 H2          -6.9640     1.6570     0.7710 ha         1 078       0.110000
     25 H3          -7.9390    -0.6170     0.9430 ha         1 078       0.110000
     26 H4          -6.6430    -2.5650     0.1360 ha         1 078       0.110000
     27 H5          -4.4030    -2.2490    -0.8280 ha         1 078       0.106500
     28 H6          -2.7780    -0.7110    -1.8430 hc         1 078       0.060200
     29 H7          -2.9660     1.0220    -1.6770 hc         1 078       0.060200
     30 H8          -2.1940     0.8900     0.6900 h1         1 078       0.079700
     31 H9          -1.8220    -1.8390     0.1330 ho         1 078       0.433000
     32 H10         -0.3120    -0.4390    -1.2910 h1         1 078       0.060700
     33 H11         -0.9980     2.3620    -0.8070 hn         1 078       0.412000
     34 H12          0.3840     1.9010    -1.5410 hn         1 078       0.412000
     35 H14          0.3780    -0.6030     1.0830 h1         1 078       0.088700
     36 H15          0.3440     2.2020     0.9580 ho         1 078       0.434000
     37 H16          1.9490    -0.5150    -0.8380 h1         1 078       0.062700
     38 H17          2.9230     0.4820     1.8710 hc         1 078       0.061200
     39 H18          2.5960    -1.1880     1.4290 hc         1 078       0.061200
     40 H19          3.9860    -2.2700    -0.4070 ha         1 078       0.110500
     41 H20          6.2580    -2.4820    -1.3290 ha         1 078       0.114000
     42 H21          7.9320    -0.6980    -0.9350 ha         1 078       0.114000
     43 H22          7.3060     1.2940     0.3950 ha         1 078       0.114000
     44 H23          5.0310     1.5020     1.3160 ha         1 078       0.110500
     45 H24          2.5350     2.2030     0.0290 hn         1 078       0.404500
     46 H25          3.2040     1.3860    -1.1930 hn         1 078       0.404500
@<TRIPOS>BOND
     1     1     2 ar  
     2     1     6 ar  
     3     1    23 1   
     4     2     3 ar  
     5     2    24 1   
     6     3     4 ar  
     7     3    25 1   
     8     4     5 ar  
     9     4    26 1   
    10     5     6 ar  
    11     5    27 1   
    12     6     7 1   
    13     7     8 1   
    14     7    28 1   
    15     7    29 1   
    16     8     9 1   
    17     8    10 1   
    18     8    30 1   
    19     9    31 1   
    20    10    11 1   
    21    10    12 1   
    22    10    32 1   
    23    11    33 1   
    24    11    34 1   
    25    12    13 1   
    26    12    14 1   
    27    12    35 1   
    28    13    36 1   
    29    14    15 1   
    30    14    22 1   
    31    14    37 1   
    32    15    16 1   
    33    15    38 1   
    34    15    39 1   
    35    16    17 ar  
    36    16    21 ar  
    37    17    18 ar  
    38    17    40 1   
    39    18    19 ar  
    40    18    41 1   
    41    19    20 ar  
    42    19    42 1   
    43    20    21 ar  
    44    20    43 1   
    45    21    44 1   
    46    22    45 1   
    47    22    46 1   
@<TRIPOS>SUBSTRUCTURE
     1 078         1 TEMP              0 ****  ****    0 ROOT
