@<TRIPOS>MOLECULE
079
   78    80     1     0     0
SMALL
No Charge or Current Charge


@<TRIPOS>ATOM
      1 C1           4.1740     1.0310     0.3370 c          1 079       0.605100
      2 O1           4.2200     1.5170     1.4620 o          1 079      -0.574100
      3 C2           5.3660     0.3180    -0.3430 c3         1 079       0.075600
      4 O2           6.5350     0.2650     0.5080 os         1 079      -0.317100
      5 C3           7.7090    -0.3400     0.1070 ca         1 079       0.134100
      6 C4           8.7870    -0.3410     1.0080 ca         1 079      -0.169500
      7 C5          10.0080    -0.9430     0.6570 ca         1 079      -0.074000
      8 C6          10.1530    -1.5470    -0.6030 ca         1 079      -0.145000
      9 C7           9.0800    -1.5500    -1.5100 ca         1 079      -0.074000
     10 C8           7.8580    -0.9480    -1.1590 ca         1 079      -0.169500
     11 N1           3.0250     1.0730    -0.4250 ns         1 079      -0.498900
     12 C9           1.7280     1.6330     0.0190 c3         1 079       0.038700
     13 C13          0.5780     0.8860    -0.7160 c          1 079       0.594100
     14 O3           0.7050     0.4120    -1.8400 o          1 079      -0.617100
     15 C10          1.6900     3.1820    -0.1620 c3         1 079      -0.062700
     16 C11          1.8200     3.6310    -1.6390 c3         1 079      -0.091100
     17 C12          0.4540     3.8270     0.5070 c3         1 079      -0.091100
     18 C27         -8.7180     0.6100    -0.6930 ca         1 079      -0.102000
     19 C28         -9.9680     1.0790    -0.2550 ca         1 079      -0.108500
     20 C29        -10.6580     0.3980     0.7610 ca         1 079      -0.110000
     21 C30        -10.0980    -0.7550     1.3370 ca         1 079      -0.108500
     22 C31         -8.8480    -1.2250     0.8990 ca         1 079      -0.102000
     23 C26         -8.1490    -0.5440    -0.1180 ca         1 079      -0.072300
     24 C24         -5.6190    -0.1190    -0.1690 c3         1 079       0.181300
     25 O5          -5.6600     0.0160     1.2620 oh         1 079      -0.640000
     26 C23         -4.2060    -0.6400    -0.6160 c3         1 079       0.106500
     27 N3          -4.1400    -0.8860    -2.0890 n8         1 079      -1.018200
     28 C22         -3.0520     0.3270    -0.1660 c3         1 079       0.128300
     29 O4          -3.1000     1.5340    -0.9550 oh         1 079      -0.635000
     30 C14         -1.6170    -0.2790    -0.2720 c3         1 079       0.065700
     31 C15         -1.3890    -1.5180     0.6400 c3         1 079      -0.047100
     32 C16          0.0790    -1.9390     0.7150 ca         1 079      -0.091300
     33 C17          0.6720    -2.6390    -0.3550 ca         1 079      -0.103500
     34 C18          2.0360    -2.9760    -0.3140 ca         1 079      -0.106000
     35 C19          2.8170    -2.6150     0.7970 ca         1 079      -0.115000
     36 C20          2.2320    -1.9220     1.8690 ca         1 079      -0.106000
     37 C21          0.8670    -1.5870     1.8290 ca         1 079      -0.103500
     38 N2          -0.5850     0.7370     0.0160 ns         1 079      -0.481900
     39 H34          5.0340    -0.6940    -0.6060 h1         1 079       0.052700
     40 H35          5.5870     0.8590    -1.2720 h1         1 079       0.052700
     41 H36          8.6740     0.1260     1.9830 ha         1 079       0.122000
     42 H37         10.8390    -0.9410     1.3590 ha         1 079       0.113000
     43 H38         11.0980    -2.0130    -0.8770 ha         1 079       0.116000
     44 H39          9.1950    -2.0190    -2.4860 ha         1 079       0.113000
     45 H40          7.0450    -0.9640    -1.8790 ha         1 079       0.122000
     46 H33          3.0590     0.6300    -1.3370 hn         1 079       0.330500
     47 H25          1.6170     1.4050     1.0880 h1         1 079       0.081700
     48 H26          2.5640     3.5820     0.3670 hc         1 079       0.059700
     49 H30          0.9640     3.2910    -2.2330 hc         1 079       0.040033
     50 H31          1.8660     4.7240    -1.7050 hc         1 079       0.040033
     51 H32          2.7350     3.2320    -2.0940 hc         1 079       0.040033
     52 H27          0.3710     3.5160     1.5560 hc         1 079       0.040033
     53 H28          0.5350     4.9210     0.4880 hc         1 079       0.040033
     54 H29         -0.4710     3.5510    -0.0120 hc         1 079       0.040033
     55 H2         -10.4010     1.9710    -0.7030 ha         1 079       0.111000
     56 H3         -11.6260     0.7610     1.1010 ha         1 079       0.111000
     57 H4         -10.6330    -1.2840     2.1230 ha         1 079       0.111000
     58 H5          -8.4240    -2.1180     1.3520 ha         1 079       0.107000
     59 H8          -5.7800     0.8620    -0.6400 h1         1 079       0.085700
     60 H9          -6.6010     0.1660     1.4960 ho         1 079       0.431000
     61 H10         -4.0690    -1.6080    -0.1150 h1         1 079       0.058700
     62 H11         -3.9600     0.0230    -2.5330 hn         1 079       0.406000
     63 H12         -3.2920    -1.4200    -2.3060 hn         1 079       0.406000
     64 H14         -3.2070     0.5760     0.8940 h1         1 079       0.086700
     65 H15         -2.1910     1.9030    -0.9410 ho         1 079       0.438000
     66 H16         -1.4780    -0.6150    -1.3080 h1         1 079       0.077700
     67 H17         -1.7620    -1.2930     1.6470 hc         1 079       0.053700
     68 H18         -1.9900    -2.3580     0.2740 hc         1 079       0.053700
     69 H19          0.0780    -2.9080    -1.2250 ha         1 079       0.109000
     70 H20          2.4880    -3.5120    -1.1460 ha         1 079       0.122000
     71 H21          3.8740    -2.8740     0.8280 ha         1 079       0.117000
     72 H22          2.8350    -1.6400     2.7290 ha         1 079       0.122000
     73 H23          0.4260    -1.0400     2.6600 ha         1 079       0.109000
     74 H24         -0.5860     1.1550     0.9390 hn         1 079       0.319500
     75 C25         -6.7880    -1.0470    -0.5920 c3         1 079      -0.062100
     76 H1          -8.1910     1.1430    -1.4820 ha         1 079       0.107000
     77 H6          -6.5980    -2.0580    -0.2120 hc         1 079       0.058700
     78 H7          -6.8030    -1.1340    -1.6850 hc         1 079       0.058700
@<TRIPOS>BOND
     1     1     2 2   
     2     1     3 1   
     3     1    11 1   
     4     3     4 1   
     5     3    39 1   
     6     3    40 1   
     7     4     5 1   
     8     5     6 ar  
     9     5    10 ar  
    10     6     7 ar  
    11     6    41 1   
    12     7     8 ar  
    13     7    42 1   
    14     8     9 ar  
    15     8    43 1   
    16     9    10 ar  
    17     9    44 1   
    18    10    45 1   
    19    11    12 1   
    20    11    46 1   
    21    12    13 1   
    22    12    15 1   
    23    12    47 1   
    24    13    14 2   
    25    13    38 1   
    26    15    16 1   
    27    15    17 1   
    28    15    48 1   
    29    16    49 1   
    30    16    50 1   
    31    16    51 1   
    32    17    52 1   
    33    17    53 1   
    34    17    54 1   
    35    18    19 ar  
    36    18    23 ar  
    37    18    76 1   
    38    19    20 ar  
    39    19    55 1   
    40    20    21 ar  
    41    20    56 1   
    42    21    22 ar  
    43    21    57 1   
    44    22    23 ar  
    45    22    58 1   
    46    23    75 1   
    47    24    25 1   
    48    24    26 1   
    49    24    59 1   
    50    24    75 1   
    51    25    60 1   
    52    26    27 1   
    53    26    28 1   
    54    26    61 1   
    55    27    62 1   
    56    27    63 1   
    57    28    29 1   
    58    28    30 1   
    59    28    64 1   
    60    29    65 1   
    61    30    31 1   
    62    30    38 1   
    63    30    66 1   
    64    31    32 1   
    65    31    67 1   
    66    31    68 1   
    67    32    33 ar  
    68    32    37 ar  
    69    33    34 ar  
    70    33    69 1   
    71    34    35 ar  
    72    34    70 1   
    73    35    36 ar  
    74    35    71 1   
    75    36    37 ar  
    76    36    72 1   
    77    37    73 1   
    78    38    74 1   
    79    75    77 1   
    80    75    78 1   
@<TRIPOS>SUBSTRUCTURE
     1 079         1 TEMP              0 ****  ****    0 ROOT
