@<TRIPOS>MOLECULE
079
   78    80     1     0     0
SMALL
bcc


@<TRIPOS>ATOM
      1 C1           3.8850     1.3310     0.4800 c          1 079       0.672100
      2 O1           3.8470     1.5110     1.6830 o          1 079      -0.574100
      3 C2           5.0760     0.6840    -0.2080 c3         1 079       0.052400
      4 O2           5.7860    -0.0370     0.7610 os         1 079      -0.293900
      5 C3           6.8570    -0.7580     0.3670 ca         1 079       0.134100
      6 C4           7.4650    -1.5370     1.3540 ca         1 079      -0.187500
      7 C5           8.5730    -2.3050     1.0440 ca         1 079      -0.092000
      8 C6           9.0930    -2.3130    -0.2470 ca         1 079      -0.163000
      9 C7           8.4830    -1.5410    -1.2230 ca         1 079      -0.092000
     10 C8           7.3680    -0.7630    -0.9280 ca         1 079      -0.187500
     11 N1           2.9180     1.6990    -0.3780 ns         1 079      -0.565900
     12 C9           1.6240     2.1880     0.0370 c3         1 079       0.038700
     13 C13          0.5830     1.2810    -0.6170 c          1 079       0.661100
     14 O3           0.6610     0.9920    -1.8020 o          1 079      -0.617100
     15 C10          1.4080     3.6800    -0.2810 c3         1 079      -0.062700
     16 C11          1.5800     4.0340    -1.7540 c3         1 079      -0.091100
     17 C12          0.0560     4.1500     0.2460 c3         1 079      -0.091100
     18 C27         -8.3870    -0.2580    -0.9930 ca         1 079      -0.120000
     19 C28         -9.6690     0.2560    -0.8530 ca         1 079      -0.126500
     20 C29        -10.2870     0.2540     0.3910 ca         1 079      -0.128000
     21 C30         -9.6140    -0.2670     1.4880 ca         1 079      -0.126500
     22 C31         -8.3310    -0.7770     1.3410 ca         1 079      -0.120000
     23 C26         -7.6990    -0.7810     0.1000 ca         1 079      -0.072300
     24 C24         -5.2550    -0.1800     0.0690 c3         1 079       0.158100
     25 O5          -5.3270     0.4400     1.3320 oh         1 079      -0.577800
     26 C23         -3.8410    -0.7040    -0.2410 c3         1 079       0.106500
     27 N3          -3.8080    -1.1430    -1.6260 n8         1 079      -0.907800
     28 C22         -2.7610     0.3290     0.1350 c3         1 079       0.105100
     29 O4          -2.9830     1.5690    -0.4980 oh         1 079      -0.572800
     30 C14         -1.3420    -0.1770    -0.1570 c3         1 079       0.065700
     31 C15         -0.9910    -1.4880     0.5730 c3         1 079      -0.047100
     32 C16          0.4510    -1.8550     0.3600 ca         1 079      -0.091300
     33 C17          0.8540    -2.4590    -0.8290 ca         1 079      -0.121500
     34 C18          2.1930    -2.7320    -1.0710 ca         1 079      -0.124000
     35 C19          3.1540    -2.4020    -0.1220 ca         1 079      -0.133000
     36 C20          2.7640    -1.8060     1.0690 ca         1 079      -0.124000
     37 C21          1.4220    -1.5380     1.3060 ca         1 079      -0.121500
     38 N2          -0.3790     0.8380     0.2010 ns         1 079      -0.548900
     39 H34          4.7310     0.0330    -1.0190 h1         1 079       0.052700
     40 H35          5.6920     1.4720    -0.6610 h1         1 079       0.052700
     41 H36          7.0600    -1.5350     2.3580 ha         1 079       0.140000
     42 H37          9.0330    -2.9070     1.8170 ha         1 079       0.131000
     43 H38          9.9610    -2.9140    -0.4850 ha         1 079       0.134000
     44 H39          8.8710    -1.5370    -2.2330 ha         1 079       0.131000
     45 H40          6.9190    -0.1730    -1.7160 ha         1 079       0.140000
     46 H33          3.0050     1.4210    -1.3440 hn         1 079       0.330500
     47 H25          1.5740     2.0790     1.1210 h1         1 079       0.081700
     48 H26          2.1880     4.2030     0.2810 hc         1 079       0.059700
     49 H30          0.7990     3.5940    -2.3740 hc         1 079       0.040033
     50 H31          1.5290     5.1160    -1.8790 hc         1 079       0.040033
     51 H32          2.5460     3.7110    -2.1450 hc         1 079       0.040033
     52 H27         -0.0560     3.9380     1.3110 hc         1 079       0.040033
     53 H28         -0.0490     5.2280     0.1150 hc         1 079       0.040033
     54 H29         -0.7780     3.6740    -0.2740 hc         1 079       0.040033
     55 H2         -10.1860     0.6550    -1.7170 ha         1 079       0.129000
     56 H3         -11.2870     0.6520     0.5040 ha         1 079       0.129000
     57 H4         -10.0880    -0.2750     2.4610 ha         1 079       0.129000
     58 H5          -7.8180    -1.1880     2.2030 ha         1 079       0.125000
     59 H8          -5.4940     0.6050    -0.6570 h1         1 079       0.085700
     60 H9          -5.2080    -0.2330     2.0120 ho         1 079       0.392000
     61 H10         -3.6790    -1.5910     0.3840 h1         1 079       0.058700
     62 H11         -3.8580    -0.3580    -2.2640 hn         1 079       0.350800
     63 H12         -2.9560    -1.6450    -1.8410 hn         1 079       0.350800
     64 H14         -2.8330     0.5250     1.2090 h1         1 079       0.086700
     65 H15         -2.7750     1.4880    -1.4340 ho         1 079       0.399000
     66 H16         -1.2370    -0.3420    -1.2330 h1         1 079       0.077700
     67 H17         -1.2020    -1.3710     1.6410 hc         1 079       0.053700
     68 H18         -1.6340    -2.2950     0.2150 hc         1 079       0.053700
     69 H19          0.1120    -2.7080    -1.5790 ha         1 079       0.127000
     70 H20          2.4880    -3.2020    -2.0000 ha         1 079       0.140000
     71 H21          4.1990    -2.6160    -0.3100 ha         1 079       0.135000
     72 H22          3.5050    -1.5410     1.8110 ha         1 079       0.140000
     73 H23          1.1260    -1.0690     2.2370 ha         1 079       0.127000
     74 H24         -0.3320     1.0970     1.1750 hn         1 079       0.319500
     75 C25         -6.2980    -1.2950    -0.0600 c3         1 079      -0.062100
     76 H1          -7.9130    -0.2580    -1.9690 ha         1 079       0.125000
     77 H6          -6.0890    -2.0640     0.6920 hc         1 079       0.058700
     78 H7          -6.1770    -1.7670    -1.0360 hc         1 079       0.058700
@<TRIPOS>BOND
     1     1     2 2   
     2     1     3 1   
     3     1    11 1   
     4     3     4 1   
     5     3    39 1   
     6     3    40 1   
     7     4     5 1   
     8     5     6 ar  
     9     5    10 ar  
    10     6     7 ar  
    11     6    41 1   
    12     7     8 ar  
    13     7    42 1   
    14     8     9 ar  
    15     8    43 1   
    16     9    10 ar  
    17     9    44 1   
    18    10    45 1   
    19    11    12 1   
    20    11    46 1   
    21    12    13 1   
    22    12    15 1   
    23    12    47 1   
    24    13    14 2   
    25    13    38 1   
    26    15    16 1   
    27    15    17 1   
    28    15    48 1   
    29    16    49 1   
    30    16    50 1   
    31    16    51 1   
    32    17    52 1   
    33    17    53 1   
    34    17    54 1   
    35    18    19 ar  
    36    18    23 ar  
    37    18    76 1   
    38    19    20 ar  
    39    19    55 1   
    40    20    21 ar  
    41    20    56 1   
    42    21    22 ar  
    43    21    57 1   
    44    22    23 ar  
    45    22    58 1   
    46    23    75 1   
    47    24    25 1   
    48    24    26 1   
    49    24    59 1   
    50    24    75 1   
    51    25    60 1   
    52    26    27 1   
    53    26    28 1   
    54    26    61 1   
    55    27    62 1   
    56    27    63 1   
    57    28    29 1   
    58    28    30 1   
    59    28    64 1   
    60    29    65 1   
    61    30    31 1   
    62    30    38 1   
    63    30    66 1   
    64    31    32 1   
    65    31    67 1   
    66    31    68 1   
    67    32    33 ar  
    68    32    37 ar  
    69    33    34 ar  
    70    33    69 1   
    71    34    35 ar  
    72    34    70 1   
    73    35    36 ar  
    74    35    71 1   
    75    36    37 ar  
    76    36    72 1   
    77    37    73 1   
    78    38    74 1   
    79    75    77 1   
    80    75    78 1   
@<TRIPOS>SUBSTRUCTURE
     1 079         1 TEMP              0 ****  ****    0 ROOT
