@<TRIPOS>MOLECULE
07B
   32    32     1     0     0
SMALL
No Charge or Current Charge


@<TRIPOS>ATOM
      1 CBK          2.8600    -0.7750     0.1040 c6         1 07B       0.137800
      2 CAR          1.5860    -1.4270    -0.5040 c6         1 07B      -0.058400
      3 CBO          0.2780    -0.7760     0.0330 c6         1 07B      -0.108200
      4 CBA         -0.9970    -1.4180    -0.5450 c          1 07B       0.599100
      5 OAE         -1.2680    -1.3800    -1.7380 o          1 07B      -0.491000
      6 OAT         -1.8130    -1.9760     0.4060 os         1 07B      -0.436100
      7 CAB         -3.0480    -2.5760    -0.0270 c3         1 07B       0.152900
      8 CBN          0.2780     0.7810    -0.0360 c6         1 07B      -0.108200
      9 CAZ         -0.9990     1.4220     0.5420 c          1 07B       0.599100
     10 OAD         -1.2680     1.3830     1.7350 o          1 07B      -0.491000
     11 OAS         -1.8150     1.9790    -0.4080 os         1 07B      -0.436100
     12 CAA         -3.0500     2.5780     0.0250 c3         1 07B       0.152900
     13 CAQ          1.5850     1.4330     0.5000 c6         1 07B      -0.058400
     14 CBJ          2.8600     0.7820    -0.1080 c6         1 07B       0.137800
     15 OAV          2.9480     1.1170    -1.5030 oh         1 07B      -0.650500
     16 OX0          2.9500    -1.1090     1.4990 oh         1 07B      -0.650500
     17 HBK          3.7340    -1.1930    -0.4170 h1         1 07B       0.029700
     18 HAR1         1.6190    -1.3310    -1.5980 hc         1 07B       0.065700
     19 HAR2         1.5840    -2.5060    -0.2940 hc         1 07B       0.065700
     20 HBJ          3.7330     1.2010     0.4130 h1         1 07B       0.029700
     21 HX0          3.8530    -0.8620     1.7970 ho         1 07B       0.443000
     22 HBO          0.2400    -1.0210     1.1030 hc         1 07B       0.106700
     23 HBN          0.2380     1.0260    -1.1060 hc         1 07B       0.106700
     24 HAB1        -3.6910    -1.8360    -0.5220 h1         1 07B       0.048033
     25 HAB2        -2.8590    -3.3990    -0.7290 h1         1 07B       0.048033
     26 HAB3        -3.5960    -2.9820     0.8320 h1         1 07B       0.048033
     27 HAQ1         1.5820     2.5120     0.2910 hc         1 07B       0.065700
     28 HAQ2         1.6180     1.3380     1.5950 hc         1 07B       0.065700
     29 HAA1        -3.5990     2.9840    -0.8340 h1         1 07B       0.048033
     30 HAA2        -3.6920     1.8380     0.5200 h1         1 07B       0.048033
     31 HAA3        -2.8610     3.4010     0.7270 h1         1 07B       0.048033
     32 HAV          3.8520     0.8710    -1.8010 ho         1 07B       0.443000
@<TRIPOS>BOND
     1     1     2 1   
     2     1    14 1   
     3     1    16 1   
     4     1    17 1   
     5     2     3 1   
     6     2    18 1   
     7     2    19 1   
     8     3     4 1   
     9     3     8 1   
    10     3    22 1   
    11     4     5 2   
    12     4     6 1   
    13     6     7 1   
    14     7    24 1   
    15     7    25 1   
    16     7    26 1   
    17     8     9 1   
    18     8    13 1   
    19     8    23 1   
    20     9    10 2   
    21     9    11 1   
    22    11    12 1   
    23    12    29 1   
    24    12    30 1   
    25    12    31 1   
    26    13    14 1   
    27    13    27 1   
    28    13    28 1   
    29    14    15 1   
    30    14    20 1   
    31    15    32 1   
    32    16    21 1   
@<TRIPOS>SUBSTRUCTURE
     1 07B         1 TEMP              0 ****  ****    0 ROOT
