@<TRIPOS>MOLECULE
07B
   32    32     1     0     0
SMALL
abcg2


@<TRIPOS>ATOM
      1 CBK          2.6100    -0.7380     0.1550 c6         1 07B       0.137800
      2 CAR          1.3500    -1.4210    -0.3500 c6         1 07B      -0.058400
      3 CBO          0.0820    -0.7390     0.1880 c6         1 07B      -0.108200
      4 CBA         -1.1330    -1.4600    -0.3410 c          1 07B       0.599100
      5 OAE         -1.7780    -1.1120    -1.3000 o          1 07B      -0.491000
      6 OAT         -1.3870    -2.5610     0.3510 os         1 07B      -0.436100
      7 CAB         -2.4710    -3.3830    -0.0830 c3         1 07B       0.152900
      8 CBN          0.0720     0.7320    -0.2130 c6         1 07B      -0.108200
      9 CAZ         -1.1630     1.4280     0.3060 c          1 07B       0.599100
     10 OAD         -1.9050     0.9810     1.1460 o          1 07B      -0.491000
     11 OAS         -1.3290     2.6130    -0.2610 os         1 07B      -0.436100
     12 CAA         -2.4430     3.4010     0.1610 c3         1 07B       0.152900
     13 CAQ          1.3330     1.4300     0.3220 c6         1 07B      -0.058400
     14 CBJ          2.6010     0.7600    -0.1840 c6         1 07B       0.137800
     15 OAV          2.6690     0.9590    -1.5790 oh         1 07B      -0.650500
     16 OX0          2.6820    -0.9370     1.5500 oh         1 07B      -0.650500
     17 HBK          3.4760    -1.2000    -0.3430 h1         1 07B       0.029700
     18 HAR1         1.3510    -1.3880    -1.4420 hc         1 07B       0.065700
     19 HAR2         1.3700    -2.4740    -0.0650 hc         1 07B       0.065700
     20 HBJ          3.4610     1.2330     0.3130 h1         1 07B       0.029700
     21 HX0          3.4830    -0.5190     1.8810 ho         1 07B       0.443000
     22 HBO          0.0800    -0.8220     1.2780 hc         1 07B       0.106700
     23 HBN          0.0680     0.8150    -1.3040 hc         1 07B       0.106700
     24 HAB1        -3.4150    -2.8400    -0.0640 h1         1 07B       0.048033
     25 HAB2        -2.2990    -3.7700    -1.0870 h1         1 07B       0.048033
     26 HAB3        -2.5180    -4.2100     0.6180 h1         1 07B       0.048033
     27 HAQ1         1.3420     2.4820     0.0330 hc         1 07B       0.065700
     28 HAQ2         1.3360     1.4010     1.4140 hc         1 07B       0.065700
     29 HAA1        -2.3930     4.3200    -0.4170 h1         1 07B       0.048033
     30 HAA2        -3.3860     2.8970    -0.0440 h1         1 07B       0.048033
     31 HAA3        -2.3840     3.6390     1.2220 h1         1 07B       0.048033
     32 HAV          3.4800     0.5570    -1.9090 ho         1 07B       0.443000
@<TRIPOS>BOND
     1     1     2 1   
     2     1    14 1   
     3     1    16 1   
     4     1    17 1   
     5     2     3 1   
     6     2    18 1   
     7     2    19 1   
     8     3     4 1   
     9     3     8 1   
    10     3    22 1   
    11     4     5 2   
    12     4     6 1   
    13     6     7 1   
    14     7    24 1   
    15     7    25 1   
    16     7    26 1   
    17     8     9 1   
    18     8    13 1   
    19     8    23 1   
    20     9    10 2   
    21     9    11 1   
    22    11    12 1   
    23    12    29 1   
    24    12    30 1   
    25    12    31 1   
    26    13    14 1   
    27    13    27 1   
    28    13    28 1   
    29    14    15 1   
    30    14    20 1   
    31    15    32 1   
    32    16    21 1   
@<TRIPOS>SUBSTRUCTURE
     1 07B         1 TEMP              0 ****  ****    0 ROOT
