@<TRIPOS>MOLECULE
07C
   27    29     1     0     0
SMALL
abcg2


@<TRIPOS>ATOM
      1 N1          10.9690   -14.3500    25.1050 nb         1 07C      -0.657000
      2 C2          14.1790    -9.5020    26.9460 ca         1 07C       0.161900
      3 N3          10.6350   -11.6290    29.4720 no         1 07C       0.710200
      4 C4          13.0390   -11.4670    25.9780 ca         1 07C       0.024000
      5 C5          12.0590   -12.4510    26.0920 ca         1 07C      -0.136000
      6 C6          11.8610   -13.4100    25.0610 ca         1 07C       0.382900
      7 O1           9.4410   -11.4940    29.3460 o          1 07C      -0.383000
      8 O           11.2050   -11.7970    30.5190 o          1 07C      -0.383000
      9 C10         11.4440   -11.5880    28.2660 ca         1 07C      -0.172200
     10 C9          11.2260   -12.5210    27.2470 ca         1 07C       0.069000
     11 C8          10.2620   -13.5610    27.2690 ca         1 07C      -0.157000
     12 C7          10.1830   -14.4150    26.2110 ca         1 07C       0.353900
     13 C11         12.4140   -10.5950    28.1690 ca         1 07C       0.105000
     14 C3          13.2130   -10.5480    26.9950 ca         1 07C      -0.182000
     15 N           14.3210    -8.6360    27.8950 nb         1 07C      -0.154000
     16 N2          12.5730    -9.6740    29.1490 nb         1 07C      -0.198000
     17 C1          13.4850    -8.7700    28.9700 ca         1 07C       0.249300
     18 S           13.7680    -7.5360    30.1580 ss         1 07C      -0.249300
     19 C           12.5590    -7.9440    31.4300 c3         1 07C       0.009900
     20 H1          14.8270    -9.4160    26.0780 h4         1 07C       0.032100
     21 H2          13.6590   -11.4230    25.0900 ha         1 07C       0.131000
     22 H3          12.4940   -13.3560    24.1790 h4         1 07C       0.024100
     23 H4           9.5880   -13.7010    28.1020 ha         1 07C       0.149000
     24 H5           9.4510   -15.2130    26.2210 h4         1 07C       0.029100
     25 H6          12.6940    -7.2060    32.2190 h1         1 07C       0.079700
     26 H7          11.5460    -7.8750    31.0420 h1         1 07C       0.079700
     27 H8          12.7360    -8.9380    31.8330 h1         1 07C       0.079700
@<TRIPOS>BOND
     1     1     6 ar  
     2     1    12 ar  
     3     2    14 ar  
     4     2    15 ar  
     5     2    20 1   
     6     3     7 1   
     7     3     8 1   
     8     3     9 1   
     9     4     5 ar  
    10     4    14 ar  
    11     4    21 1   
    12     5     6 ar  
    13     5    10 ar  
    14     6    22 1   
    15     9    10 ar  
    16     9    13 ar  
    17    10    11 ar  
    18    11    12 ar  
    19    11    23 1   
    20    12    24 1   
    21    13    14 ar  
    22    13    16 ar  
    23    15    17 ar  
    24    16    17 ar  
    25    17    18 1   
    26    18    19 1   
    27    19    25 1   
    28    19    26 1   
    29    19    27 1   
@<TRIPOS>SUBSTRUCTURE
     1 07C         1 TEMP              0 ****  ****    0 ROOT
