@<TRIPOS>MOLECULE
07C
   27    29     1     0     0
SMALL
No Charge or Current Charge


@<TRIPOS>ATOM
      1 N1          10.9710   -14.4150    25.1230 nb         1 07C      -0.657000
      2 C2          14.1830    -9.5150    26.8730 ca         1 07C       0.161900
      3 N3          10.5570   -11.5920    29.4590 no         1 07C       0.710200
      4 C4          13.0470   -11.4720    25.9500 ca         1 07C       0.024000
      5 C5          12.0660   -12.4690    26.0750 ca         1 07C      -0.136000
      6 C6          11.8930   -13.4280    25.0590 ca         1 07C       0.382900
      7 O1           9.3600   -11.3080    29.3250 o          1 07C      -0.383000
      8 O           11.0770   -11.9360    30.5280 o          1 07C      -0.383000
      9 C10         11.4130   -11.5620    28.2490 ca         1 07C      -0.172200
     10 C9          11.2460   -12.5220    27.2200 ca         1 07C       0.069000
     11 C8          10.2900   -13.5580    27.2850 ca         1 07C      -0.157000
     12 C7          10.1880   -14.4710    26.2230 ca         1 07C       0.353900
     13 C11         12.3990   -10.5560    28.1330 ca         1 07C       0.105000
     14 C3          13.2090   -10.5250    26.9750 ca         1 07C      -0.182000
     15 N           14.3500    -8.5960    27.8410 nb         1 07C      -0.154000
     16 N2          12.5770    -9.6220    29.0940 nb         1 07C      -0.198000
     17 C1          13.5380    -8.6900    28.9130 ca         1 07C       0.249300
     18 S           13.7690    -7.4600    30.1950 ss         1 07C      -0.249300
     19 C           12.5760    -7.9500    31.5240 c3         1 07C       0.009900
     20 H1          14.8380    -9.4370    26.0070 h4         1 07C       0.032100
     21 H2          13.6790   -11.4330    25.0640 ha         1 07C       0.131000
     22 H3          12.5120   -13.4080    24.1630 h4         1 07C       0.024100
     23 H4           9.6250   -13.6780    28.1340 ha         1 07C       0.149000
     24 H5           9.4550   -15.2760    26.2560 h4         1 07C       0.029100
     25 H6          12.6540    -7.2500    32.3650 h1         1 07C       0.079700
     26 H7          11.5510    -7.9260    31.1340 h1         1 07C       0.079700
     27 H8          12.8060    -8.9630    31.8780 h1         1 07C       0.079700
@<TRIPOS>BOND
     1     1     6 ar  
     2     1    12 ar  
     3     2    14 ar  
     4     2    15 ar  
     5     2    20 1   
     6     3     7 1   
     7     3     8 1   
     8     3     9 1   
     9     4     5 ar  
    10     4    14 ar  
    11     4    21 1   
    12     5     6 ar  
    13     5    10 ar  
    14     6    22 1   
    15     9    10 ar  
    16     9    13 ar  
    17    10    11 ar  
    18    11    12 ar  
    19    11    23 1   
    20    12    24 1   
    21    13    14 ar  
    22    13    16 ar  
    23    15    17 ar  
    24    16    17 ar  
    25    17    18 1   
    26    18    19 1   
    27    19    25 1   
    28    19    26 1   
    29    19    27 1   
@<TRIPOS>SUBSTRUCTURE
     1 07C         1 TEMP              0 ****  ****    0 ROOT
