@<TRIPOS>MOLECULE
07E
   33    33     1     0     0
SMALL
No Charge or Current Charge


@<TRIPOS>ATOM
      1 C1           0.4880     0.1220    -0.2760 c6         1 07E       0.354300
      2 C2           1.5950     1.1000     0.2400 c6         1 07E       0.155300
      3 C3           2.9910     0.5530    -0.2070 c6         1 07E       0.181300
      4 C4           3.1710    -0.9250     0.2610 c6         1 07E       0.089300
      5 C5           1.9670    -1.7830    -0.2280 c6         1 07E       0.136600
      6 O1          -0.8100     0.5700     0.1530 os         1 07E      -0.460000
      7 O2           1.3570     2.4540    -0.2260 oh         1 07E      -0.699000
      8 O3           4.0800     1.3380     0.3120 oh         1 07E      -0.640000
      9 O4           4.4300    -1.4520    -0.2160 oh         1 07E      -0.721000
     10 O5           0.7280    -1.2030     0.2360 os         1 07E      -0.471000
     11 C6          -1.9340    -0.1590    -0.3660 c3         1 07E       0.170600
     12 C7          -3.2100     0.5070     0.1850 c3         1 07E      -0.117400
     13 C8          -4.5160    -0.1250    -0.3480 c3         1 07E       0.168300
     14 C9          -5.7720     0.6230     0.1370 c3         1 07E      -0.125100
     15 O           -4.6020    -1.4870     0.0820 oh         1 07E      -0.658000
     16 H1           0.5120     0.0980    -1.3760 h2         1 07E       0.032700
     17 H2           1.5620     1.0790     1.3400 h1         1 07E       0.063700
     18 H3           3.0220     0.5650    -1.3080 h1         1 07E       0.051700
     19 H4           3.1580    -0.9370     1.3620 h1         1 07E       0.057700
     20 H5           1.9550    -1.8410    -1.3270 h1         1 07E       0.056200
     21 H6           2.0480    -2.8050     0.1690 h1         1 07E       0.056200
     22 H7           0.4060     2.6380    -0.0390 ho         1 07E       0.517000
     23 H8           4.8670     0.7540     0.2170 ho         1 07E       0.457000
     24 H9           4.5600    -2.3370     0.2020 ho         1 07E       0.512000
     25 H10         -1.9450    -0.1240    -1.4640 h1         1 07E       0.040200
     26 H11         -1.8970    -1.2110    -0.0520 h1         1 07E       0.040200
     27 H12         -3.1970     0.4610     1.2810 hc         1 07E       0.055200
     28 H13         -3.1950     1.5680    -0.0900 hc         1 07E       0.055200
     29 H14         -4.4970    -0.0800    -1.4470 h1         1 07E       0.070700
     30 H15         -5.7530     1.6650    -0.2060 hc         1 07E       0.043033
     31 H16         -6.6790     0.1530    -0.2620 hc         1 07E       0.043033
     32 H17         -5.8350     0.6240     1.2320 hc         1 07E       0.043033
     33 H18         -4.7300    -1.4720     1.0550 ho         1 07E       0.440000
@<TRIPOS>BOND
     1     1     2 1   
     2     1     6 1   
     3     1    10 1   
     4     1    16 1   
     5     2     3 1   
     6     2     7 1   
     7     2    17 1   
     8     3     4 1   
     9     3     8 1   
    10     3    18 1   
    11     4     5 1   
    12     4     9 1   
    13     4    19 1   
    14     5    10 1   
    15     5    20 1   
    16     5    21 1   
    17     6    11 1   
    18     7    22 1   
    19     8    23 1   
    20     9    24 1   
    21    11    12 1   
    22    11    25 1   
    23    11    26 1   
    24    12    13 1   
    25    12    27 1   
    26    12    28 1   
    27    13    14 1   
    28    13    15 1   
    29    13    29 1   
    30    14    30 1   
    31    14    31 1   
    32    14    32 1   
    33    15    33 1   
@<TRIPOS>SUBSTRUCTURE
     1 07E         1 TEMP              0 ****  ****    0 ROOT
