@<TRIPOS>MOLECULE
07E
   33    33     1     0     0
SMALL
abcg2


@<TRIPOS>ATOM
      1 C1           0.4410    -0.0760    -0.1540 c6         1 07E       0.354300
      2 C2           1.4870     0.9680     0.2500 c6         1 07E       0.155300
      3 C3           2.8550     0.5240    -0.2380 c6         1 07E       0.181300
      4 C4           3.1380    -0.8940     0.2480 c6         1 07E       0.089300
      5 C5           1.9930    -1.8180    -0.1560 c6         1 07E       0.136600
      6 O1          -0.7700     0.3160     0.3680 os         1 07E      -0.460000
      7 O2           1.1940     2.2150    -0.3240 oh         1 07E      -0.699000
      8 O3           3.8130     1.4400     0.2250 oh         1 07E      -0.640000
      9 O4           4.3550    -1.3060    -0.3300 oh         1 07E      -0.721000
     10 O5           0.7690    -1.3420     0.3590 os         1 07E      -0.471000
     11 C6          -1.9160    -0.2620    -0.2410 c3         1 07E       0.170600
     12 C7          -3.1430     0.4720     0.2610 c3         1 07E      -0.117400
     13 C8          -4.4340    -0.0330    -0.3770 c3         1 07E       0.168300
     14 C9          -5.6320     0.7880     0.0780 c3         1 07E      -0.125100
     15 O           -4.6320    -1.4170    -0.1460 oh         1 07E      -0.658000
     16 H1           0.3940    -0.1280    -1.2600 h2         1 07E       0.032700
     17 H2           1.5020     1.0250     1.3500 h1         1 07E       0.063700
     18 H3           2.8330     0.5020    -1.3410 h1         1 07E       0.051700
     19 H4           3.2090    -0.8780     1.3440 h1         1 07E       0.057700
     20 H5           1.9560    -1.9020    -1.2520 h1         1 07E       0.056200
     21 H6           2.1460    -2.8200     0.2480 h1         1 07E       0.056200
     22 H7           0.3480     2.5130     0.0290 ho         1 07E       0.517000
     23 H8           4.6770     1.1410    -0.0780 ho         1 07E       0.457000
     24 H9           4.7090    -2.0370     0.1850 ho         1 07E       0.512000
     25 H10         -1.8410    -0.1690    -1.3330 h1         1 07E       0.040200
     26 H11         -1.9810    -1.3280    -0.0070 h1         1 07E       0.040200
     27 H12         -3.2140     0.3800     1.3510 hc         1 07E       0.055200
     28 H13         -3.0390     1.5380     0.0400 hc         1 07E       0.055200
     29 H14         -4.3420     0.0620    -1.4640 h1         1 07E       0.070700
     30 H15         -5.5050     1.8390    -0.1830 hc         1 07E       0.043033
     31 H16         -6.5500     0.4340    -0.3920 hc         1 07E       0.043033
     32 H17         -5.7590     0.7300     1.1620 hc         1 07E       0.043033
     33 H18         -4.7350    -1.5480     0.8030 ho         1 07E       0.440000
@<TRIPOS>BOND
     1     1     2 1   
     2     1     6 1   
     3     1    10 1   
     4     1    16 1   
     5     2     3 1   
     6     2     7 1   
     7     2    17 1   
     8     3     4 1   
     9     3     8 1   
    10     3    18 1   
    11     4     5 1   
    12     4     9 1   
    13     4    19 1   
    14     5    10 1   
    15     5    20 1   
    16     5    21 1   
    17     6    11 1   
    18     7    22 1   
    19     8    23 1   
    20     9    24 1   
    21    11    12 1   
    22    11    25 1   
    23    11    26 1   
    24    12    13 1   
    25    12    27 1   
    26    12    28 1   
    27    13    14 1   
    28    13    15 1   
    29    13    29 1   
    30    14    30 1   
    31    14    31 1   
    32    14    32 1   
    33    15    33 1   
@<TRIPOS>SUBSTRUCTURE
     1 07E         1 TEMP              0 ****  ****    0 ROOT
