@<TRIPOS>MOLECULE
07F
   54    57     1     0     0
SMALL
No Charge or Current Charge


@<TRIPOS>ATOM
      1 N1         -16.2190   -12.7370   -22.2770 nc         1 07F      -0.647300
      2 C4         -14.4150   -12.1050   -20.8920 ca         1 07F      -0.161900
      3 C5         -13.3000   -12.3780   -21.7120 ca         1 07F      -0.035000
      4 C6         -12.0590   -12.7170   -21.1470 ca         1 07F      -0.130000
      5 C7         -11.9240   -12.8130   -19.7520 ca         1 07F      -0.089000
      6 C8         -13.0380   -12.5820   -18.9300 ca         1 07F       0.065000
      7 C13        -12.5650    -9.1500   -22.1540 ca         1 07F      -0.107500
      8 C15        -12.0450   -10.1870   -24.2950 ca         1 07F      -0.116000
      9 C17        -14.3290    -9.5110   -23.7900 ca         1 07F      -0.107500
     10 C21        -19.4960   -10.7200   -24.6560 ca         1 07F      -0.074300
     11 C22        -18.7760    -9.5800   -25.0680 ca         1 07F      -0.109000
     12 C24        -19.3930   -10.0060   -27.3850 ca         1 07F      -0.114000
     13 C26        -20.1680   -11.4960   -25.6220 ca         1 07F      -0.109000
     14 C2         -17.4550   -12.5330   -22.8380 cc         1 07F       0.206400
     15 C3         -15.7090   -11.7730   -21.5150 cd         1 07F       0.578500
     16 F1         -12.9070   -12.7000   -17.5880 f          1 07F      -0.184000
     17 C9         -14.2860   -12.2390   -19.4920 ca         1 07F       0.134100
     18 O1         -15.3700   -12.0540   -18.6760 oh         1 07F      -0.521100
     19 N2         -16.2910   -10.5300   -21.3020 n          1 07F      -0.293300
     20 C11        -14.9280    -8.4080   -21.5780 c3         1 07F      -0.053100
     21 C12        -13.9180    -9.0410   -22.5270 ca         1 07F      -0.085300
     22 C14        -11.6300    -9.7200   -23.0360 ca         1 07F      -0.110500
     23 C16        -13.3950   -10.0830   -24.6710 ca         1 07F      -0.110500
     24 C18        -17.5820   -10.2890   -21.7690 c          1 07F       0.559200
     25 O2         -18.1670    -9.2370   -21.5360 o          1 07F      -0.559000
     26 C19        -18.1620   -11.3740   -22.5920 cd         1 07F      -0.266400
     27 C23        -18.7240    -9.2250   -26.4270 ca         1 07F      -0.111000
     28 C25        -20.1150   -11.1410   -26.9810 ca         1 07F      -0.111000
     29 H1         -13.3940   -12.3140   -22.7950 ha         1 07F       0.140000
     30 H2         -11.2030   -12.9080   -21.7910 ha         1 07F       0.127000
     31 H3         -10.9660   -13.0770   -19.3100 ha         1 07F       0.135000
     32 H4         -14.7990    -9.8000   -19.9470 h1         1 07F       0.069700
     33 H5         -16.2880    -8.8820   -19.9580 h1         1 07F       0.069700
     34 H7         -11.3220   -10.6300   -24.9760 ha         1 07F       0.113000
     35 H8         -15.3710    -9.4330   -24.0910 ha         1 07F       0.115000
     36 H11        -18.2560    -8.9670   -24.3360 ha         1 07F       0.114500
     37 H12        -19.3520    -9.7310   -28.4370 ha         1 07F       0.111000
     38 H13        -20.7290   -12.3790   -25.3230 ha         1 07F       0.114500
     39 H17        -15.0870   -12.2250   -17.7520 ho         1 07F       0.483000
     40 H18        -14.4440    -7.6200   -20.9870 hc         1 07F       0.065700
     41 H19        -15.7160    -7.9050   -22.1520 hc         1 07F       0.065700
     42 H20        -10.5860    -9.8030   -22.7420 ha         1 07F       0.114500
     43 H21        -13.7180   -10.4450   -25.6450 ha         1 07F       0.114500
     44 H22        -18.1650    -8.3450   -26.7380 ha         1 07F       0.110500
     45 H23        -20.6340   -11.7460   -27.7220 ha         1 07F       0.110500
     46 C10        -15.5820    -9.4160   -20.6080 c3         1 07F       0.097000
     47 C20        -19.5420   -11.1070   -23.1820 c3         1 07F       0.031100
     48 C1         -17.9590   -13.6610   -23.7040 c3         1 07F      -0.052900
     49 H6         -12.2350    -8.7930   -21.1810 ha         1 07F       0.115000
     50 H9         -20.0800   -10.3290   -22.6280 hc         1 07F       0.063700
     51 H10        -20.1690   -11.9970   -23.0490 hc         1 07F       0.063700
     52 H14        -17.2640   -14.5090   -23.7150 hc         1 07F       0.057367
     53 H15        -18.9240   -14.0330   -23.3420 hc         1 07F       0.057367
     54 H16        -18.0860   -13.3280   -24.7400 hc         1 07F       0.057367
@<TRIPOS>BOND
     1     1    14 1   
     2     1    15 2   
     3     2     3 ar  
     4     2    15 1   
     5     2    17 ar  
     6     3     4 ar  
     7     3    29 1   
     8     4     5 ar  
     9     4    30 1   
    10     5     6 ar  
    11     5    31 1   
    12     6    16 1   
    13     6    17 ar  
    14     7    21 ar  
    15     7    22 ar  
    16     7    49 1   
    17     8    22 ar  
    18     8    23 ar  
    19     8    34 1   
    20     9    21 ar  
    21     9    23 ar  
    22     9    35 1   
    23    10    11 ar  
    24    10    13 ar  
    25    10    47 1   
    26    11    27 ar  
    27    11    36 1   
    28    12    27 ar  
    29    12    28 ar  
    30    12    37 1   
    31    13    28 ar  
    32    13    38 1   
    33    14    26 2   
    34    14    48 1   
    35    15    19 1   
    36    17    18 1   
    37    18    39 1   
    38    19    24 1   
    39    19    46 1   
    40    20    21 1   
    41    20    40 1   
    42    20    41 1   
    43    20    46 1   
    44    22    42 1   
    45    23    43 1   
    46    24    25 2   
    47    24    26 1   
    48    26    47 1   
    49    27    44 1   
    50    28    45 1   
    51    32    46 1   
    52    33    46 1   
    53    47    50 1   
    54    47    51 1   
    55    48    52 1   
    56    48    53 1   
    57    48    54 1   
@<TRIPOS>SUBSTRUCTURE
     1 07F         1 TEMP              0 ****  ****    0 ROOT
