@<TRIPOS>MOLECULE
07F
   54    57     1     0     0
SMALL
abcg2


@<TRIPOS>ATOM
      1 N1         -16.2070   -12.7590   -22.1370 nc         1 07F      -0.647300
      2 C4         -14.3710   -12.1260   -20.7920 ca         1 07F      -0.161900
      3 C5         -13.2570   -12.3700   -21.5870 ca         1 07F      -0.035000
      4 C6         -12.0500   -12.7330   -21.0160 ca         1 07F      -0.130000
      5 C7         -11.9540   -12.8750   -19.6380 ca         1 07F      -0.089000
      6 C8         -13.0680   -12.6470   -18.8630 ca         1 07F       0.065000
      7 C13        -12.7720    -9.0150   -22.5050 ca         1 07F      -0.107500
      8 C15        -12.3990   -10.2300   -24.5480 ca         1 07F      -0.116000
      9 C17        -14.6380    -9.7040   -23.8380 ca         1 07F      -0.107500
     10 C21        -19.3140   -10.6720   -24.6150 ca         1 07F      -0.074300
     11 C22        -18.6160    -9.5050   -24.9280 ca         1 07F      -0.109000
     12 C24        -19.0400    -9.8370   -27.2760 ca         1 07F      -0.114000
     13 C26        -19.8760   -11.4070   -25.6550 ca         1 07F      -0.109000
     14 C2         -17.4110   -12.5390   -22.7310 cc         1 07F       0.206400
     15 C3         -15.6760   -11.8170   -21.4270 cd         1 07F       0.578500
     16 F1         -12.9960   -12.7910   -17.5260 f          1 07F      -0.184000
     17 C9         -14.2930   -12.2760   -19.4070 ca         1 07F       0.134100
     18 O1         -15.3960   -12.0560   -18.6750 oh         1 07F      -0.521100
     19 N2         -16.2600   -10.6090   -21.2340 n          1 07F      -0.293300
     20 C11        -15.0920    -8.4670   -21.6910 c3         1 07F      -0.053100
     21 C12        -14.1510    -9.0620   -22.7010 ca         1 07F      -0.085300
     22 C14        -11.9020    -9.5880   -23.4220 ca         1 07F      -0.110500
     23 C16        -13.7710   -10.2880   -24.7530 ca         1 07F      -0.110500
     24 C18        -17.5490   -10.3510   -21.7160 c          1 07F       0.559200
     25 O2         -18.0920    -9.2840   -21.4590 o          1 07F      -0.559000
     26 C19        -18.1200   -11.3890   -22.5330 cd         1 07F      -0.266400
     27 C23        -18.4780    -9.0920   -26.2450 ca         1 07F      -0.111000
     28 C25        -19.7420   -10.9950   -26.9760 ca         1 07F      -0.111000
     29 H1         -13.3410   -12.2560   -22.6590 ha         1 07F       0.140000
     30 H2         -11.1830   -12.9080   -21.6380 ha         1 07F       0.127000
     31 H3         -11.0230   -13.1620   -19.1650 ha         1 07F       0.135000
     32 H4         -14.6810    -9.8500   -20.1000 h1         1 07F       0.069700
     33 H5         -16.2020    -9.0000   -19.9100 h1         1 07F       0.069700
     34 H7         -11.7220   -10.6790   -25.2630 ha         1 07F       0.113000
     35 H8         -15.7060    -9.7390   -24.0230 ha         1 07F       0.115000
     36 H11        -18.1820    -8.9080   -24.1350 ha         1 07F       0.114500
     37 H12        -18.9310    -9.5150   -28.3030 ha         1 07F       0.111000
     38 H13        -20.4210   -12.3160   -25.4290 ha         1 07F       0.114500
     39 H17        -15.2270   -12.1640   -17.7310 ho         1 07F       0.483000
     40 H18        -14.6000    -7.6540   -21.1520 hc         1 07F       0.065700
     41 H19        -15.9580    -8.0330   -22.1900 hc         1 07F       0.065700
     42 H20        -10.8330    -9.5350   -23.2550 ha         1 07F       0.114500
     43 H21        -14.1700   -10.7810   -25.6310 ha         1 07F       0.114500
     44 H22        -17.9320    -8.1840   -26.4670 ha         1 07F       0.110500
     45 H23        -20.1850   -11.5830   -27.7690 ha         1 07F       0.110500
     46 C10        -15.5480    -9.4790   -20.6360 c3         1 07F       0.097000
     47 C20        -19.4510   -11.1310   -23.1810 c3         1 07F       0.031100
     48 C1         -17.9070   -13.6430   -23.6100 c3         1 07F      -0.052900
     49 H6         -12.3760    -8.5190   -21.6270 ha         1 07F       0.115000
     50 H9         -19.9910   -10.3760   -22.6070 hc         1 07F       0.063700
     51 H10        -20.0630   -12.0340   -23.1500 hc         1 07F       0.063700
     52 H14        -17.2530   -14.5080   -23.5380 hc         1 07F       0.057367
     53 H15        -18.9190   -13.9500   -23.3430 hc         1 07F       0.057367
     54 H16        -17.9400   -13.3230   -24.6530 hc         1 07F       0.057367
@<TRIPOS>BOND
     1     1    14 1   
     2     1    15 2   
     3     2     3 ar  
     4     2    15 1   
     5     2    17 ar  
     6     3     4 ar  
     7     3    29 1   
     8     4     5 ar  
     9     4    30 1   
    10     5     6 ar  
    11     5    31 1   
    12     6    16 1   
    13     6    17 ar  
    14     7    21 ar  
    15     7    22 ar  
    16     7    49 1   
    17     8    22 ar  
    18     8    23 ar  
    19     8    34 1   
    20     9    21 ar  
    21     9    23 ar  
    22     9    35 1   
    23    10    11 ar  
    24    10    13 ar  
    25    10    47 1   
    26    11    27 ar  
    27    11    36 1   
    28    12    27 ar  
    29    12    28 ar  
    30    12    37 1   
    31    13    28 ar  
    32    13    38 1   
    33    14    26 2   
    34    14    48 1   
    35    15    19 1   
    36    17    18 1   
    37    18    39 1   
    38    19    24 1   
    39    19    46 1   
    40    20    21 1   
    41    20    40 1   
    42    20    41 1   
    43    20    46 1   
    44    22    42 1   
    45    23    43 1   
    46    24    25 2   
    47    24    26 1   
    48    26    47 1   
    49    27    44 1   
    50    28    45 1   
    51    32    46 1   
    52    33    46 1   
    53    47    50 1   
    54    47    51 1   
    55    48    52 1   
    56    48    53 1   
    57    48    54 1   
@<TRIPOS>SUBSTRUCTURE
     1 07F         1 TEMP              0 ****  ****    0 ROOT
