@<TRIPOS>MOLECULE
07G
   53    55     1     0     0
SMALL
No Charge or Current Charge


@<TRIPOS>ATOM
      1 C3           7.7320     2.4280    21.1420 ca         1 07G      -0.111000
      2 C4           7.3150     3.6660    20.6230 ca         1 07G       0.148000
      3 F1           8.1130     4.7500    20.7620 f          1 07G      -0.161000
      4 C5           6.0820     3.7720    19.9540 ca         1 07G       0.161000
      5 F2           5.6790     4.9590    19.4440 f          1 07G      -0.160000
      6 C6           5.2590     2.6440    19.8160 ca         1 07G      -0.117000
      7 C1           5.6750     1.4040    20.3330 ca         1 07G      -0.053000
      8 C2           6.9230     1.2830    20.9830 ca         1 07G      -0.107300
      9 C7           7.4170    -0.0730    21.4860 c3         1 07G       0.147300
     10 N1           7.1150    -1.2050    20.5790 n          1 07G      -0.252400
     11 C8           6.2390    -2.2350    20.9680 c          1 07G       0.620900
     12 O1           5.6180    -2.2220    22.0260 o          1 07G      -0.497100
     13 C9           7.8040    -1.2590    19.3210 ce         1 07G       0.404900
     14 C10          8.5570    -2.5660    19.0940 c          1 07G       0.475800
     15 O2           8.7700    -3.3950    19.9740 o          1 07G      -0.588100
     16 N3           9.0150    -2.7280    17.7910 ns         1 07G      -0.472900
     17 C20          9.7490    -3.8710    17.2320 c3         1 07G       0.132400
     18 C22          8.9080    -5.1660    17.3490 c3         1 07G      -0.107433
     19 C23          9.9930    -3.5610    15.7370 c3         1 07G      -0.107433
     20 C21         11.1140    -4.0410    17.9430 c3         1 07G      -0.107433
     21 C11          7.3600    -0.4060    18.2070 cc         1 07G      -0.359800
     22 C14          7.9740     0.8400    17.8450 ca         1 07G      -0.059800
     23 C15          9.0630     1.5070    18.4220 ca         1 07G      -0.077000
     24 C16          9.4420     2.7520    17.8780 ca         1 07G      -0.099000
     25 C17          8.7400     3.2870    16.7740 ca         1 07G       0.128000
     26 Cl1          9.2160     4.8440    16.1080 cl         1 07G      -0.190000
     27 C18          7.6660     2.5780    16.1990 ca         1 07G      -0.084000
     28 C13          7.3120     1.3450    16.7650 ca         1 07G      -0.065200
     29 N2           6.3180     0.4780    16.3560 na         1 07G      -0.156700
     30 C12          6.3720    -0.6370    17.2290 cd         1 07G       0.056700
     31 C19          5.4830    -1.8460    17.1140 c          1 07G       0.711200
     32 O4           5.6070    -2.7550    17.9210 o          1 07G      -0.642500
     33 O3           4.6660    -1.8690    16.2040 o          1 07G      -0.642500
     34 H1           8.6930     2.3600    21.6450 ha         1 07G       0.125000
     35 H2           4.3050     2.7290    19.3020 ha         1 07G       0.139000
     36 H3           5.0320     0.5350    20.2080 ha         1 07G       0.132000
     37 H4           8.5060    -0.0320    21.6220 h1         1 07G       0.078200
     38 H5           6.9870    -0.2530    22.4800 h1         1 07G       0.078200
     39 H6           6.1650    -3.0590    20.2390 h5         1 07G       0.059200
     40 H8           8.7950    -1.9670    17.1570 hn         1 07G       0.338500
     41 H9           9.4060    -6.0000    16.8410 hc         1 07G       0.052033
     42 H10          8.7600    -5.4590    18.3950 hc         1 07G       0.052033
     43 H11          7.9200    -5.0320    16.8920 hc         1 07G       0.052033
     44 H12         10.5400    -4.3790    15.2510 hc         1 07G       0.052033
     45 H13          9.0430    -3.4280    15.2030 hc         1 07G       0.052033
     46 H14         10.5810    -2.6440    15.6160 hc         1 07G       0.052033
     47 H15         11.7060    -4.8290    17.4620 hc         1 07G       0.052033
     48 H16         11.6940    -3.1100    17.9030 hc         1 07G       0.052033
     49 H17         10.9910    -4.3180    18.9960 hc         1 07G       0.052033
     50 H18          9.5960     1.0870    19.2720 ha         1 07G       0.133000
     51 H19         10.2730     3.3030    18.3090 ha         1 07G       0.137000
     52 H20          7.1320     2.9800    15.3410 ha         1 07G       0.147000
     53 H21          5.6870     0.5870    15.5700 hn         1 07G       0.400000
@<TRIPOS>BOND
     1     1     2 ar  
     2     1     8 ar  
     3     1    34 1   
     4     2     3 1   
     5     2     4 ar  
     6     4     5 1   
     7     4     6 ar  
     8     6     7 ar  
     9     6    35 1   
    10     7     8 ar  
    11     7    36 1   
    12     8     9 1   
    13     9    10 1   
    14     9    37 1   
    15     9    38 1   
    16    10    11 1   
    17    10    13 2   
    18    11    12 2   
    19    11    39 1   
    20    13    14 1   
    21    13    21 1   
    22    14    15 2   
    23    14    16 1   
    24    16    17 1   
    25    16    40 1   
    26    17    18 1   
    27    17    19 1   
    28    17    20 1   
    29    18    41 1   
    30    18    42 1   
    31    18    43 1   
    32    19    44 1   
    33    19    45 1   
    34    19    46 1   
    35    20    47 1   
    36    20    48 1   
    37    20    49 1   
    38    21    22 1   
    39    21    30 2   
    40    22    23 ar  
    41    22    28 ar  
    42    23    24 ar  
    43    23    50 1   
    44    24    25 ar  
    45    24    51 1   
    46    25    26 1   
    47    25    27 ar  
    48    27    28 ar  
    49    27    52 1   
    50    28    29 1   
    51    29    30 1   
    52    29    53 1   
    53    30    31 1   
    54    31    32 1   
    55    31    33 1   
@<TRIPOS>SUBSTRUCTURE
     1 07G         1 TEMP              0 ****  ****    0 ROOT
