@<TRIPOS>MOLECULE
07G
   53    55     1     0     0
SMALL
abcg2


@<TRIPOS>ATOM
      1 C3           5.7390     2.4190    20.3780 ca         1 07G      -0.111000
      2 C4           4.5790     3.1560    20.2440 ca         1 07G       0.148000
      3 F1           4.6280     4.4120    19.7560 f          1 07G      -0.161000
      4 C5           3.3550     2.6120    20.5890 ca         1 07G       0.161000
      5 F2           2.2400     3.3560    20.4460 f          1 07G      -0.160000
      6 C6           3.2770     1.3190    21.0770 ca         1 07G      -0.117000
      7 C1           4.4400     0.5760    21.2180 ca         1 07G      -0.053000
      8 C2           5.6750     1.1150    20.8600 ca         1 07G      -0.107300
      9 C7           6.9600     0.3560    21.0380 c3         1 07G       0.147300
     10 N1           7.1490    -0.8970    20.2500 n          1 07G      -0.252400
     11 C8           6.7280    -2.1070    20.8370 c          1 07G       0.620900
     12 O1           6.1750    -2.1500    21.9040 o          1 07G      -0.497100
     13 C9           7.9340    -0.9220    19.1570 ce         1 07G       0.404900
     14 C10          8.8350    -2.1470    18.9890 c          1 07G       0.475800
     15 O2           9.4680    -2.5530    19.9590 o          1 07G      -0.588100
     16 N3           8.8340    -2.6440    17.7550 ns         1 07G      -0.472900
     17 C20          9.6160    -3.8080    17.2670 c3         1 07G       0.132400
     18 C22          9.2180    -5.0590    18.0570 c3         1 07G      -0.107433
     19 C23          9.2470    -3.9750    15.7930 c3         1 07G      -0.107433
     20 C21         11.1140    -3.5180    17.4050 c3         1 07G      -0.107433
     21 C11          8.0690     0.1480    18.2790 cc         1 07G      -0.359800
     22 C14          9.2990     0.5900    17.6320 ca         1 07G      -0.059800
     23 C15         10.6450     0.2520    17.7610 ca         1 07G      -0.077000
     24 C16         11.5840     0.9500    17.0170 ca         1 07G      -0.099000
     25 C17         11.1860     1.9950    16.1760 ca         1 07G       0.128000
     26 CL1         12.4090     2.8500    15.2670 cl         1 07G      -0.190000
     27 C18          9.8620     2.3860    16.0490 ca         1 07G      -0.084000
     28 C13          8.9420     1.6620    16.7920 ca         1 07G      -0.065200
     29 N2           7.5660     1.8200    16.8850 na         1 07G      -0.156700
     30 C12          7.0200     0.9590    17.7440 cd         1 07G       0.056700
     31 C19          5.4990     0.7640    17.6920 c          1 07G       0.711200
     32 O4           5.0810    -0.3440    18.0710 o          1 07G      -0.642500
     33 O3           4.8790     1.7300    17.2010 o          1 07G      -0.642500
     34 H1           6.6800     2.8690    20.0910 ha         1 07G       0.125000
     35 H2           2.3100     0.9140    21.3460 ha         1 07G       0.139000
     36 H3           4.3800    -0.4320    21.6040 ha         1 07G       0.132000
     37 H4           7.8040     0.9920    20.7870 h1         1 07G       0.078200
     38 H5           7.0630     0.0400    22.0750 h1         1 07G       0.078200
     39 H6           6.9130    -2.9860    20.2120 h5         1 07G       0.059200
     40 H8           8.2440    -2.1790    17.0800 hn         1 07G       0.338500
     41 H9           9.7580    -5.9200    17.6620 hc         1 07G       0.052033
     42 H10          9.4620    -4.9520    19.1130 hc         1 07G       0.052033
     43 H11          8.1480    -5.2450    17.9590 hc         1 07G       0.052033
     44 H12          9.7980    -4.8160    15.3730 hc         1 07G       0.052033
     45 H13          8.1790    -4.1700    15.6800 hc         1 07G       0.052033
     46 H14          9.5020    -3.0770    15.2260 hc         1 07G       0.052033
     47 H15         11.6780    -4.3660    17.0160 hc         1 07G       0.052033
     48 H16         11.3850    -2.6300    16.8320 hc         1 07G       0.052033
     49 H17         11.3920    -3.3640    18.4460 hc         1 07G       0.052033
     50 H18         10.9700    -0.5380    18.4220 ha         1 07G       0.133000
     51 H19         12.6310     0.6910    17.0860 ha         1 07G       0.137000
     52 H20          9.5680     3.2100    15.4150 ha         1 07G       0.147000
     53 H21          6.9900     2.4280    16.3140 hn         1 07G       0.400000
@<TRIPOS>BOND
     1     1     2 ar  
     2     1     8 ar  
     3     1    34 1   
     4     2     3 1   
     5     2     4 ar  
     6     4     5 1   
     7     4     6 ar  
     8     6     7 ar  
     9     6    35 1   
    10     7     8 ar  
    11     7    36 1   
    12     8     9 1   
    13     9    10 1   
    14     9    37 1   
    15     9    38 1   
    16    10    11 1   
    17    10    13 2   
    18    11    12 2   
    19    11    39 1   
    20    13    14 1   
    21    13    21 1   
    22    14    15 2   
    23    14    16 1   
    24    16    17 1   
    25    16    40 1   
    26    17    18 1   
    27    17    19 1   
    28    17    20 1   
    29    18    41 1   
    30    18    42 1   
    31    18    43 1   
    32    19    44 1   
    33    19    45 1   
    34    19    46 1   
    35    20    47 1   
    36    20    48 1   
    37    20    49 1   
    38    21    22 1   
    39    21    30 2   
    40    22    23 ar  
    41    22    28 ar  
    42    23    24 ar  
    43    23    50 1   
    44    24    25 ar  
    45    24    51 1   
    46    25    26 1   
    47    25    27 ar  
    48    27    28 ar  
    49    27    52 1   
    50    28    29 1   
    51    29    30 1   
    52    29    53 1   
    53    30    31 1   
    54    31    32 1   
    55    31    33 1   
@<TRIPOS>SUBSTRUCTURE
     1 07G         1 TEMP              0 ****  ****    0 ROOT
