@<TRIPOS>MOLECULE
07H
   54    58     1     0     0
SMALL
No Charge or Current Charge


@<TRIPOS>ATOM
      1 C1           6.0590    -0.9730     0.6160 ca         1 07H      -0.136800
      2 C4           6.6760    -2.2380     0.6310 ca         1 07H      -0.061000
      3 C8           7.9870    -2.3820     0.1400 ca         1 07H      -0.145000
      4 C10          8.6850    -1.2650    -0.3520 ca         1 07H      -0.073000
      5 C6           8.0700    -0.0000    -0.3600 ca         1 07H      -0.143000
      6 C2           6.7550     0.1420     0.1110 ca         1 07H       0.147100
      7 O5           6.1690     1.3920     0.1220 os         1 07H      -0.346100
      8 C9           4.7220     1.4980     0.1270 c6         1 07H       0.209800
      9 C7           4.0620     0.4090     0.9690 c2         1 07H      -0.165400
     10 C3           4.6980    -0.7660     1.1590 ce         1 07H      -0.129200
     11 C26          2.6750     0.7370     1.4850 c3         1 07H       0.214000
     12 N23          1.7040     0.9330     0.3860 n3         1 07H      -0.723600
     13 C22          1.4900    -0.2940    -0.4380 c6         1 07H       0.139300
     14 C21          0.5190    -0.0280    -1.6190 c6         1 07H       0.095000
     15 N19         -0.7830     0.5370    -1.1640 n          1 07H      -0.403800
     16 C25         -0.5970     1.7350    -0.2930 c6         1 07H       0.095000
     17 C24          0.3990     1.4650     0.8700 c6         1 07H       0.139300
     18 C18         -1.9450    -0.2650    -1.0940 c          1 07H       0.614700
     19 O20         -1.8780    -1.4780    -1.2560 o          1 07H      -0.594100
     20 C14         -3.2900     0.4120    -0.9230 ca         1 07H      -0.139600
     21 C13         -3.5370     1.7110    -1.4200 ca         1 07H      -0.080000
     22 C12         -4.8010     2.2990    -1.2650 ca         1 07H      -0.114000
     23 C11         -5.8360     1.5990    -0.6270 ca         1 07H      -0.074000
     24 C15         -5.6230     0.2910    -0.1420 ca         1 07H      -0.022000
     25 C16         -4.3480    -0.2920    -0.3060 ca         1 07H      -0.067000
     26 C17         -6.6970    -0.4660     0.5170 cc         1 07H      -0.102000
     27 N27         -6.7250    -1.7990     0.9200 na         1 07H       0.003800
     28 N28         -7.9200    -2.1550     1.5330 nc         1 07H      -0.513800
     29 C29         -8.6140    -1.0280     1.5050 cd         1 07H       0.236900
     30 C30         -7.9090     0.0330     0.8980 cd         1 07H      -0.214000
     31 H1           6.1460    -3.1030     1.0220 ha         1 07H       0.112000
     32 H2           8.4640    -3.3590     0.1500 ha         1 07H       0.116000
     33 H3           9.7020    -1.3780    -0.7230 ha         1 07H       0.115000
     34 H4           8.6090     0.8670    -0.7340 ha         1 07H       0.128000
     35 H5           4.4400     2.4970     0.4880 h1         1 07H       0.064200
     36 H6           4.3660     1.4060    -0.9090 h1         1 07H       0.064200
     37 H7           4.2470    -1.5870     1.7200 ha         1 07H       0.184000
     38 H8           2.3320    -0.0640     2.1540 h1         1 07H       0.043700
     39 H9           2.7410     1.6510     2.0920 h1         1 07H       0.043700
     40 H11          2.4430    -0.6570    -0.8510 h1         1 07H       0.044200
     41 H12          1.0780    -1.1030     0.1830 h1         1 07H       0.044200
     42 H13          0.9900     0.6870    -2.3080 h1         1 07H       0.065200
     43 H14          0.3660    -0.9580    -2.1840 h1         1 07H       0.065200
     44 H15         -0.2180     2.5660    -0.9060 h1         1 07H       0.065200
     45 H16         -1.5480     2.0600     0.1470 h1         1 07H       0.065200
     46 H17         -0.0640     0.7510     1.5670 h1         1 07H       0.044200
     47 H18          0.5500     2.4030     1.4250 h1         1 07H       0.044200
     48 H19         -2.7590     2.2620    -1.9440 ha         1 07H       0.123000
     49 H20         -4.9830     3.3010    -1.6500 ha         1 07H       0.121000
     50 H21         -6.8060     2.0770    -0.5290 ha         1 07H       0.123000
     51 H22         -4.1650    -1.2990     0.0620 ha         1 07H       0.121000
     52 H23         -5.9760    -2.4780     0.7950 hn         1 07H       0.374000
     53 H24         -9.6100    -1.0070     1.9310 h4         1 07H       0.037100
     54 H25         -8.2790     1.0440     0.7760 ha         1 07H       0.144000
@<TRIPOS>BOND
     1     1     2 ar  
     2     1     6 ar  
     3     1    10 1   
     4     2     3 ar  
     5     2    31 1   
     6     3     4 ar  
     7     3    32 1   
     8     4     5 ar  
     9     4    33 1   
    10     5     6 ar  
    11     5    34 1   
    12     6     7 1   
    13     7     8 1   
    14     8     9 1   
    15     8    35 1   
    16     8    36 1   
    17     9    10 2   
    18     9    11 1   
    19    10    37 1   
    20    11    12 1   
    21    11    38 1   
    22    11    39 1   
    23    12    13 1   
    24    12    17 1   
    25    13    14 1   
    26    13    40 1   
    27    13    41 1   
    28    14    15 1   
    29    14    42 1   
    30    14    43 1   
    31    15    16 1   
    32    15    18 1   
    33    16    17 1   
    34    16    44 1   
    35    16    45 1   
    36    17    46 1   
    37    17    47 1   
    38    18    19 2   
    39    18    20 1   
    40    20    21 ar  
    41    20    25 ar  
    42    21    22 ar  
    43    21    48 1   
    44    22    23 ar  
    45    22    49 1   
    46    23    24 ar  
    47    23    50 1   
    48    24    25 ar  
    49    24    26 1   
    50    25    51 1   
    51    26    27 1   
    52    26    30 2   
    53    27    28 1   
    54    27    52 1   
    55    28    29 2   
    56    29    30 1   
    57    29    53 1   
    58    30    54 1   
@<TRIPOS>SUBSTRUCTURE
     1 07H         1 TEMP              0 ****  ****    0 ROOT
