@<TRIPOS>MOLECULE
07H
   54    58     1     0     0
SMALL
abcg2


@<TRIPOS>ATOM
      1 C1           5.9010    -0.9730     0.7220 ca         1 07H      -0.136800
      2 C4           6.6340    -2.1560     0.7070 ca         1 07H      -0.061000
      3 C8           7.9460    -2.1750     0.2580 ca         1 07H      -0.145000
      4 C10          8.5420    -0.9940    -0.1670 ca         1 07H      -0.073000
      5 C6           7.8290     0.1990    -0.1610 ca         1 07H      -0.143000
      6 C2           6.5110     0.2050     0.2740 ca         1 07H       0.147100
      7 O5           5.8440     1.3790     0.3150 os         1 07H      -0.346100
      8 C9           4.4280     1.3170     0.1750 c6         1 07H       0.209800
      9 C7           3.8200     0.2210     1.0020 c2         1 07H      -0.165400
     10 C3           4.5380    -0.8800     1.2250 ce         1 07H      -0.129200
     11 C26          2.4160     0.4240     1.4700 c3         1 07H       0.214000
     12 N23          1.5400     0.7150     0.3490 n3         1 07H      -0.723600
     13 C22          1.3540    -0.4420    -0.5060 c6         1 07H       0.139300
     14 C21          0.5130    -0.0750    -1.7150 c6         1 07H       0.095000
     15 N19         -0.7590     0.4920    -1.3040 n          1 07H      -0.403800
     16 C25         -0.5990     1.6290    -0.4150 c6         1 07H       0.095000
     17 C24          0.2590     1.2420     0.7800 c6         1 07H       0.139300
     18 C18         -1.9110    -0.1760    -1.5160 c          1 07H       0.614700
     19 O20         -1.9580    -1.2970    -2.0070 o          1 07H      -0.594100
     20 C14         -3.1940     0.5180    -1.1760 ca         1 07H      -0.139600
     21 C13         -3.5040     1.7670    -1.7060 ca         1 07H      -0.080000
     22 C12         -4.7470     2.3300    -1.4580 ca         1 07H      -0.114000
     23 C11         -5.6770     1.6590    -0.6830 ca         1 07H      -0.074000
     24 C15         -5.3790     0.4050    -0.1450 ca         1 07H      -0.022000
     25 C16         -4.1330    -0.1600    -0.4090 ca         1 07H      -0.067000
     26 C17         -6.3740    -0.2830     0.6720 cc         1 07H      -0.102000
     27 N27         -6.3640    -1.6130     0.9050 na         1 07H       0.003800
     28 N28         -7.3620    -2.0220     1.6770 nc         1 07H      -0.513800
     29 C29         -8.0430    -0.9260     1.9610 cd         1 07H       0.236900
     30 C30         -7.4730     0.2030     1.3570 cd         1 07H      -0.214000
     31 H1           6.1650    -3.0700     1.0540 ha         1 07H       0.112000
     32 H2           8.5030    -3.1030     0.2430 ha         1 07H       0.116000
     33 H3           9.5670    -0.9980    -0.5140 ha         1 07H       0.115000
     34 H4           8.2920     1.1210    -0.4880 ha         1 07H       0.128000
     35 H5           4.0520     2.2930     0.4830 h1         1 07H       0.064200
     36 H6           4.1680     1.1880    -0.8840 h1         1 07H       0.064200
     37 H7           4.1270    -1.7160     1.7790 ha         1 07H       0.184000
     38 H8           2.0790    -0.4490     2.0520 h1         1 07H       0.043700
     39 H9           2.3920     1.2860     2.1450 h1         1 07H       0.043700
     40 H11          2.3250    -0.8020    -0.8530 h1         1 07H       0.044200
     41 H12          0.8740    -1.2740     0.0360 h1         1 07H       0.044200
     42 H13          1.0440     0.6720    -2.3130 h1         1 07H       0.065200
     43 H14          0.3450    -0.9470    -2.3400 h1         1 07H       0.065200
     44 H15         -0.1230     2.4480    -0.9620 h1         1 07H       0.065200
     45 H16         -1.5620     1.9830    -0.0590 h1         1 07H       0.065200
     46 H17         -0.2970     0.5170     1.3990 h1         1 07H       0.044200
     47 H18          0.4240     2.1320     1.3910 h1         1 07H       0.044200
     48 H19         -2.7850     2.2960    -2.3190 ha         1 07H       0.123000
     49 H20         -4.9950     3.2960    -1.8770 ha         1 07H       0.121000
     50 H21         -6.6480     2.1030    -0.5050 ha         1 07H       0.123000
     51 H22         -3.8690    -1.1260     0.0040 ha         1 07H       0.121000
     52 H23         -5.7200    -2.2950     0.5370 hn         1 07H       0.374000
     53 H24         -8.9190    -0.9760     2.5900 h4         1 07H       0.037100
     54 H25         -7.8030     1.2260     1.4250 ha         1 07H       0.144000
@<TRIPOS>BOND
     1     1     2 ar  
     2     1     6 ar  
     3     1    10 1   
     4     2     3 ar  
     5     2    31 1   
     6     3     4 ar  
     7     3    32 1   
     8     4     5 ar  
     9     4    33 1   
    10     5     6 ar  
    11     5    34 1   
    12     6     7 1   
    13     7     8 1   
    14     8     9 1   
    15     8    35 1   
    16     8    36 1   
    17     9    10 2   
    18     9    11 1   
    19    10    37 1   
    20    11    12 1   
    21    11    38 1   
    22    11    39 1   
    23    12    13 1   
    24    12    17 1   
    25    13    14 1   
    26    13    40 1   
    27    13    41 1   
    28    14    15 1   
    29    14    42 1   
    30    14    43 1   
    31    15    16 1   
    32    15    18 1   
    33    16    17 1   
    34    16    44 1   
    35    16    45 1   
    36    17    46 1   
    37    17    47 1   
    38    18    19 2   
    39    18    20 1   
    40    20    21 ar  
    41    20    25 ar  
    42    21    22 ar  
    43    21    48 1   
    44    22    23 ar  
    45    22    49 1   
    46    23    24 ar  
    47    23    50 1   
    48    24    25 ar  
    49    24    26 1   
    50    25    51 1   
    51    26    27 1   
    52    26    30 2   
    53    27    28 1   
    54    27    52 1   
    55    28    29 2   
    56    29    30 1   
    57    29    53 1   
    58    30    54 1   
@<TRIPOS>SUBSTRUCTURE
     1 07H         1 TEMP              0 ****  ****    0 ROOT
