@<TRIPOS>MOLECULE
07I
   70    71     1     0     0
SMALL
No Charge or Current Charge


@<TRIPOS>ATOM
      1 C1         -18.6010    42.3810   -35.3480 c6         1 07I      -0.084700
      2 O1         -11.6660    46.4460   -42.6880 o          1 07I      -0.500000
      3 C2         -18.7690    42.0290   -33.8360 c6         1 07I      -0.094400
      4 O2         -13.5600    46.3490   -41.4330 os         1 07I      -0.448100
      5 C3         -18.4180    43.2100   -32.8830 c6         1 07I       0.090700
      6 C5         -19.3600    43.7170   -35.6460 c6         1 07I       0.175300
      7 C6         -19.2470    44.2390   -37.1140 c3         1 07I      -0.032200
      8 C7         -17.9400    44.9200   -37.5070 c2         1 07I      -0.174200
      9 C8         -17.4830    45.1680   -38.7580 ce         1 07I      -0.102200
     10 C9         -18.2780    44.8150   -40.0130 c3         1 07I      -0.053900
     11 C10        -16.1860    45.8490   -38.9390 ce         1 07I      -0.138000
     12 N          -16.9650    43.4510   -32.8450 ns         1 07I      -0.493900
     13 C          -17.1090    42.3640   -35.8050 c3         1 07I      -0.078100
     14 O          -18.9290    44.7620   -34.7440 os         1 07I      -0.471000
     15 C11        -15.5650    46.0730   -40.1210 c2         1 07I      -0.230200
     16 C12        -14.2290    46.7810   -40.2330 c6         1 07I       0.230500
     17 C13        -14.3890    48.3130   -40.2050 c6         1 07I      -0.087200
     18 C14        -13.0710    48.9790   -40.5380 c2         1 07I      -0.050400
     19 C15        -12.1810    48.3250   -41.3140 ce         1 07I      -0.315200
     20 C16        -12.4090    46.9600   -41.8670 c          1 07I       0.660300
     21 C17        -12.8780    50.3820   -39.9990 c3         1 07I      -0.062900
     22 C18        -18.8610    45.7550   -32.5470 c3         1 07I      -0.082100
     23 C19        -16.0490    42.7320   -32.1230 c          1 07I       0.599300
     24 C20        -14.6370    43.1330   -32.3830 ce         1 07I      -0.276200
     25 C21        -13.5430    42.3340   -32.2780 c2         1 07I      -0.154200
     26 C22        -13.4810    40.8820   -31.8310 c3         1 07I       0.198500
     27 C23        -13.1390    40.7600   -30.3360 c3         1 07I      -0.083100
     28 C25        -11.3900    39.2760   -34.4910 c3         1 07I      -0.155100
     29 C4         -19.2040    44.4760   -33.3530 c6         1 07I       0.156300
     30 O3         -16.3730    41.8040   -31.3980 o          1 07I      -0.622100
     31 O4         -12.4210    40.2340   -32.5560 os         1 07I      -0.465100
     32 O5         -13.6620    40.1180   -34.4920 o          1 07I      -0.483000
     33 H1         -19.0860    41.5820   -35.9260 hc         1 07I       0.048700
     34 H5         -20.4290    43.5350   -35.4630 h1         1 07I       0.029700
     35 H6         -20.0670    44.9460   -37.2880 hc         1 07I       0.054200
     36 H7         -19.4420    43.3970   -37.7880 hc         1 07I       0.054200
     37 H8         -17.3370    45.2250   -36.6510 ha         1 07I       0.180000
     38 H9         -19.3250    44.5740   -39.7980 hc         1 07I       0.042367
     39 H10        -18.2970    45.6510   -40.7220 hc         1 07I       0.042367
     40 H11        -17.8400    43.9500   -40.5250 hc         1 07I       0.042367
     41 H12        -15.6990    46.1870   -38.0210 ha         1 07I       0.168000
     42 H13        -16.5970    44.1730   -33.4510 hn         1 07I       0.322500
     43 H14        -16.5940    41.4670   -35.4420 hc         1 07I       0.039367
     44 H15        -17.0320    42.3530   -36.8990 hc         1 07I       0.039367
     45 H16        -16.5530    43.2360   -35.4470 hc         1 07I       0.039367
     46 H17        -15.9950    45.7490   -41.0680 ha         1 07I       0.186000
     47 H18        -13.5950    46.4880   -39.3820 h1         1 07I       0.053700
     48 H19        -14.7380    48.6230   -39.2110 hc         1 07I       0.071200
     49 H20        -15.1560    48.6280   -40.9250 hc         1 07I       0.071200
     50 H21        -11.2430    48.7890   -41.6080 ha         1 07I       0.207000
     51 H22        -13.6650    51.0540   -40.3610 hc         1 07I       0.052367
     52 H23        -12.9060    50.3900   -38.9030 hc         1 07I       0.052367
     53 H24        -11.9140    50.8030   -40.3080 hc         1 07I       0.052367
     54 H25        -19.0260    45.5980   -31.4750 hc         1 07I       0.046367
     55 H26        -17.8160    46.0570   -32.6870 hc         1 07I       0.046367
     56 H27        -19.4940    46.5940   -32.8600 hc         1 07I       0.046367
     57 H28        -14.5140    44.1350   -32.7900 ha         1 07I       0.178000
     58 H29        -12.5640    42.7380   -32.5420 ha         1 07I       0.180000
     59 H30        -14.4380    40.3730   -32.0130 h1         1 07I       0.103700
     60 H31        -13.9090    41.2480   -29.7280 hc         1 07I       0.050033
     61 H32        -13.0850    39.7070   -30.0390 hc         1 07I       0.050033
     62 H33        -12.1750    41.2350   -30.1170 hc         1 07I       0.050033
     63 H34        -11.5330    39.0110   -35.5450 hc         1 07I       0.069033
     64 H35        -10.5350    39.9460   -34.3510 hc         1 07I       0.069033
     65 H36        -11.1060    38.4080   -33.8860 hc         1 07I       0.069033
     66 H2         -19.8150    41.7430   -33.6580 hc         1 07I       0.057700
     67 H3         -18.1760    41.1410   -33.5790 hc         1 07I       0.057700
     68 H4         -18.7450    42.9550   -31.8640 h1         1 07I       0.079700
     69 H37        -20.2820    44.2880   -33.2410 h1         1 07I       0.038700
     70 C24        -12.6240    39.9200   -33.8760 c          1 07I       0.588100
@<TRIPOS>BOND
     1     1     3 1   
     2     1     6 1   
     3     1    13 1   
     4     1    33 1   
     5     2    20 2   
     6     3     5 1   
     7     3    66 1   
     8     3    67 1   
     9     4    16 1   
    10     4    20 1   
    11     5    12 1   
    12     5    29 1   
    13     5    68 1   
    14     6     7 1   
    15     6    14 1   
    16     6    34 1   
    17     7     8 1   
    18     7    35 1   
    19     7    36 1   
    20     8     9 2   
    21     8    37 1   
    22     9    10 1   
    23     9    11 1   
    24    10    38 1   
    25    10    39 1   
    26    10    40 1   
    27    11    15 2   
    28    11    41 1   
    29    12    23 1   
    30    12    42 1   
    31    13    43 1   
    32    13    44 1   
    33    13    45 1   
    34    14    29 1   
    35    15    16 1   
    36    15    46 1   
    37    16    17 1   
    38    16    47 1   
    39    17    18 1   
    40    17    48 1   
    41    17    49 1   
    42    18    19 2   
    43    18    21 1   
    44    19    20 1   
    45    19    50 1   
    46    21    51 1   
    47    21    52 1   
    48    21    53 1   
    49    22    29 1   
    50    22    54 1   
    51    22    55 1   
    52    22    56 1   
    53    23    24 1   
    54    23    30 2   
    55    24    25 2   
    56    24    57 1   
    57    25    26 1   
    58    25    58 1   
    59    26    27 1   
    60    26    31 1   
    61    26    59 1   
    62    27    60 1   
    63    27    61 1   
    64    27    62 1   
    65    28    63 1   
    66    28    64 1   
    67    28    65 1   
    68    28    70 1   
    69    29    69 1   
    70    31    70 1   
    71    32    70 2   
@<TRIPOS>SUBSTRUCTURE
     1 07I         1 TEMP              0 ****  ****    0 ROOT
