@<TRIPOS>MOLECULE
07I
   70    71     1     0     0
SMALL
abcg2


@<TRIPOS>ATOM
      1 C1         -18.6540    42.6540   -35.6380 c6         1 07I      -0.084700
      2 O1         -11.0580    46.5320   -40.3010 o          1 07I      -0.500000
      3 C2         -18.6980    42.0300   -34.2310 c6         1 07I      -0.094400
      4 O2         -13.2420    46.5740   -40.0050 os         1 07I      -0.448100
      5 C3         -18.2440    42.9860   -33.1170 c6         1 07I       0.090700
      6 C5         -19.3780    44.0080   -35.5770 c6         1 07I       0.175300
      7 C6         -19.4400    44.8080   -36.8840 c3         1 07I      -0.032200
      8 C7         -18.1930    45.5380   -37.2680 c2         1 07I      -0.174200
      9 C8         -17.5430    45.5140   -38.4440 ce         1 07I      -0.102200
     10 C9         -17.9350    44.6550   -39.6140 c3         1 07I      -0.053900
     11 C10        -16.3620    46.3610   -38.5930 ce         1 07I      -0.138000
     12 N          -16.8050    43.2030   -33.1180 ns         1 07I      -0.493900
     13 C          -17.2450    42.7080   -36.2370 c3         1 07I      -0.078100
     14 O          -18.8130    44.8500   -34.5640 os         1 07I      -0.471000
     15 C11        -15.5980    46.4660   -39.6850 c2         1 07I      -0.230200
     16 C12        -14.4400    47.3960   -39.7780 c6         1 07I       0.230500
     17 C13        -14.5840    48.4290   -40.8830 c6         1 07I      -0.087200
     18 C14        -13.3000    49.1750   -41.1000 c2         1 07I      -0.050400
     19 C15        -12.1430    48.5750   -40.7890 ce         1 07I      -0.315200
     20 C16        -12.0870    47.1830   -40.3420 c          1 07I       0.660300
     21 C17        -13.3770    50.5420   -41.6880 c3         1 07I      -0.062900
     22 C18        -18.5690    45.3770   -32.2520 c3         1 07I      -0.082100
     23 C19        -15.9330    42.3630   -32.5220 c          1 07I       0.599300
     24 C20        -14.5090    42.7340   -32.7210 ce         1 07I      -0.276200
     25 C21        -13.4610    41.9700   -32.4160 c2         1 07I      -0.154200
     26 C22        -13.4670    40.6160   -31.7770 c3         1 07I       0.198500
     27 C23        -13.2390    40.6940   -30.2760 c3         1 07I      -0.083100
     28 C25        -11.2940    38.4960   -33.9240 c3         1 07I      -0.155100
     29 C4         -18.9890    44.3170   -33.2490 c6         1 07I       0.156300
     30 O3         -16.2990    41.3770   -31.8710 o          1 07I      -0.622100
     31 O4         -12.3500    39.8440   -32.3160 os         1 07I      -0.465100
     32 O5         -13.5250    39.3760   -34.1780 o          1 07I      -0.483000
     33 H1         -19.2600    42.0140   -36.2870 hc         1 07I       0.048700
     34 H5         -20.4160    43.7950   -35.2870 h1         1 07I       0.029700
     35 H6         -20.2320    45.5550   -36.7540 hc         1 07I       0.054200
     36 H7         -19.7780    44.1330   -37.6700 hc         1 07I       0.054200
     37 H8         -17.7970    46.1920   -36.4980 ha         1 07I       0.180000
     38 H9         -18.8180    44.0550   -39.4110 hc         1 07I       0.042367
     39 H10        -18.1370    45.2690   -40.4960 hc         1 07I       0.042367
     40 H11        -17.1190    43.9770   -39.8810 hc         1 07I       0.042367
     41 H12        -16.1030    46.9620   -37.7240 ha         1 07I       0.168000
     42 H13        -16.4380    43.9570   -33.6760 hn         1 07I       0.322500
     43 H14        -16.7270    41.7630   -36.0610 hc         1 07I       0.039367
     44 H15        -17.2850    42.8750   -37.3120 hc         1 07I       0.039367
     45 H16        -16.6410    43.5060   -35.8070 hc         1 07I       0.039367
     46 H17        -15.8130    45.8940   -40.5810 ha         1 07I       0.186000
     47 H18        -14.2860    47.9070   -38.8240 h1         1 07I       0.053700
     48 H19        -15.3840    49.1200   -40.6110 hc         1 07I       0.071200
     49 H20        -14.8870    47.9500   -41.8220 hc         1 07I       0.071200
     50 H21        -11.1870    49.0550   -40.9510 ha         1 07I       0.207000
     51 H22        -13.9120    50.5100   -42.6420 hc         1 07I       0.052367
     52 H23        -13.9530    51.2000   -41.0300 hc         1 07I       0.052367
     53 H24        -12.3890    50.9710   -41.8490 hc         1 07I       0.052367
     54 H25        -18.6710    44.9940   -31.2350 hc         1 07I       0.046367
     55 H26        -17.5310    45.6740   -32.4050 hc         1 07I       0.046367
     56 H27        -19.2010    46.2590   -32.3560 hc         1 07I       0.046367
     57 H28        -14.3270    43.7020   -33.1760 ha         1 07I       0.178000
     58 H29        -12.4680    42.3580   -32.6250 ha         1 07I       0.180000
     59 H30        -14.3870    40.0850   -31.9940 h1         1 07I       0.103700
     60 H31        -14.0670    41.2320   -29.8150 hc         1 07I       0.050033
     61 H32        -13.1910    39.6900   -29.8520 hc         1 07I       0.050033
     62 H33        -12.3100    41.2200   -30.0500 hc         1 07I       0.050033
     63 H34        -11.4350    38.0780   -34.9170 hc         1 07I       0.069033
     64 H35        -10.4190    39.1470   -33.9120 hc         1 07I       0.069033
     65 H36        -11.1190    37.6930   -33.2050 hc         1 07I       0.069033
     66 H2         -19.7280    41.7400   -34.0070 hc         1 07I       0.057700
     67 H3         -18.0940    41.1210   -34.2000 hc         1 07I       0.057700
     68 H4         -18.4950    42.5440   -32.1530 h1         1 07I       0.079700
     69 H37        -20.0550    44.0910   -33.1090 h1         1 07I       0.038700
     70 C24        -12.5130    39.2730   -33.5190 c          1 07I       0.588100
@<TRIPOS>BOND
     1     1     3 1   
     2     1     6 1   
     3     1    13 1   
     4     1    33 1   
     5     2    20 2   
     6     3     5 1   
     7     3    66 1   
     8     3    67 1   
     9     4    16 1   
    10     4    20 1   
    11     5    12 1   
    12     5    29 1   
    13     5    68 1   
    14     6     7 1   
    15     6    14 1   
    16     6    34 1   
    17     7     8 1   
    18     7    35 1   
    19     7    36 1   
    20     8     9 2   
    21     8    37 1   
    22     9    10 1   
    23     9    11 1   
    24    10    38 1   
    25    10    39 1   
    26    10    40 1   
    27    11    15 2   
    28    11    41 1   
    29    12    23 1   
    30    12    42 1   
    31    13    43 1   
    32    13    44 1   
    33    13    45 1   
    34    14    29 1   
    35    15    16 1   
    36    15    46 1   
    37    16    17 1   
    38    16    47 1   
    39    17    18 1   
    40    17    48 1   
    41    17    49 1   
    42    18    19 2   
    43    18    21 1   
    44    19    20 1   
    45    19    50 1   
    46    21    51 1   
    47    21    52 1   
    48    21    53 1   
    49    22    29 1   
    50    22    54 1   
    51    22    55 1   
    52    22    56 1   
    53    23    24 1   
    54    23    30 2   
    55    24    25 2   
    56    24    57 1   
    57    25    26 1   
    58    25    58 1   
    59    26    27 1   
    60    26    31 1   
    61    26    59 1   
    62    27    60 1   
    63    27    61 1   
    64    27    62 1   
    65    28    63 1   
    66    28    64 1   
    67    28    65 1   
    68    28    70 1   
    69    29    69 1   
    70    31    70 1   
    71    32    70 2   
@<TRIPOS>SUBSTRUCTURE
     1 07I         1 TEMP              0 ****  ****    0 ROOT
