@<TRIPOS>MOLECULE
07J
   69    72     1     0     0
SMALL
No Charge or Current Charge


@<TRIPOS>ATOM
      1 O1           2.6980     0.2890    -0.1480 o          1 07J      -0.588100
      2 C2           3.1680    -0.5960    -0.8490 c          1 07J       0.670100
      3 N3           4.5270    -0.8670    -0.8350 ns         1 07J      -0.171000
      4 C4           5.5660    -0.2020    -0.1380 ca         1 07J       0.049000
      5 C5           6.3550    -0.9350     0.7720 ca         1 07J       0.034500
      6 Cl1          6.0250    -2.6560     1.0310 cl         1 07J      -0.163500
      7 C7           7.3940    -0.3050     1.4870 ca         1 07J       0.201600
      8 O8           8.1330    -1.0640     2.3780 os         1 07J      -0.319100
      9 C9           9.2120    -0.5170     3.1550 c3         1 07J       0.147400
     10 C10          7.6560     1.0660     1.2810 ca         1 07J      -0.287000
     11 C11          6.8870     1.8010     0.3540 ca         1 07J       0.201600
     12 O12          7.1300     3.1410     0.1070 os         1 07J      -0.319100
     13 C13          8.1680     3.8790     0.7750 c3         1 07J       0.147400
     14 C14          5.8460     1.1670    -0.3580 ca         1 07J       0.034500
     15 Cl2          4.9470     2.0880    -1.5770 cl         1 07J      -0.163500
     16 N16          2.3750    -1.3970    -1.7170 n          1 07J      -0.413300
     17 C17          3.0830    -2.2290    -2.7400 c3         1 07J       0.086300
     18 C18          0.9410    -1.2340    -1.8520 ca         1 07J       0.290900
     19 C19          0.1100    -0.7920    -0.8020 ca         1 07J      -0.297000
     20 C20         -1.2470    -0.5990    -1.0670 ca         1 07J       0.399900
     21 N21         -1.7610    -0.7870    -2.2920 nb         1 07J      -0.263000
     22 C22         -0.9000    -1.1900    -3.2430 ca         1 07J       0.183900
     23 N23          0.4190    -1.4150    -3.0860 nb         1 07J      -0.268000
     24 N24         -2.0880    -0.1570    -0.0520 nu         1 07J      -0.927900
     25 C25         -3.4760    -0.0260     0.0820 ca         1 07J       0.276000
     26 C26         -4.3840    -0.8210    -0.6450 ca         1 07J      -0.120000
     27 C27         -5.7720    -0.6640    -0.4680 ca         1 07J      -0.133500
     28 C28         -6.2810     0.2830     0.4420 ca         1 07J       0.266000
     29 C29         -5.3690     1.0640     1.1810 ca         1 07J      -0.133500
     30 C30         -3.9810     0.9070     1.0040 ca         1 07J      -0.120000
     31 N31         -7.6810     0.4220     0.6050 nh         1 07J      -0.780400
     32 C32         -8.2680     0.9560     1.8760 c6         1 07J       0.194800
     33 C33         -9.7640     0.5420     2.0660 c6         1 07J       0.158800
     34 N34        -10.6250     0.8920     0.8940 n3         1 07J      -0.717600
     35 C35        -12.0480     0.5420     1.1240 c3         1 07J       0.168800
     36 C36        -13.0190     1.0580     0.0440 c3         1 07J      -0.090100
     37 C37        -10.0430     0.2830    -0.3460 c6         1 07J       0.158800
     38 C38         -8.5510     0.6860    -0.5850 c6         1 07J       0.194800
     39 H1           4.8220    -1.6610    -1.3840 hn         1 07J       0.171000
     40 H2           8.8550     0.2910     3.8060 h1         1 07J       0.045867
     41 H3           9.6540    -1.2940     3.7910 h1         1 07J       0.045867
     42 H4          10.0020    -0.1230     2.5040 h1         1 07J       0.045867
     43 H5           8.4540     1.5520     1.8290 ha         1 07J       0.128000
     44 H6           8.1790     4.9190     0.4260 h1         1 07J       0.045867
     45 H7           8.0060     3.8870     1.8600 h1         1 07J       0.045867
     46 H8           9.1530     3.4420     0.5670 h1         1 07J       0.045867
     47 H9           3.8600    -2.8440    -2.2690 h1         1 07J       0.052700
     48 H10          2.3940    -2.9230    -3.2360 h1         1 07J       0.052700
     49 H11          3.5400    -1.5790    -3.4980 h1         1 07J       0.052700
     50 H12          0.4910    -0.6430     0.2010 ha         1 07J       0.150000
     51 H13         -1.3070    -1.3430    -4.2410 h5         1 07J       0.046100
     52 H14         -1.5690     0.2150     0.7430 hn         1 07J       0.498000
     53 H15         -4.0250    -1.5780    -1.3340 ha         1 07J       0.128500
     54 H16         -6.4540    -1.2960    -1.0290 ha         1 07J       0.114500
     55 H17         -5.7280     1.8050     1.8890 ha         1 07J       0.114500
     56 H18         -3.2980     1.5240     1.5810 ha         1 07J       0.128500
     57 H19         -7.6980     0.5880     2.7420 h1         1 07J       0.043200
     58 H20         -8.2040     2.0540     1.8820 h1         1 07J       0.043200
     59 H21         -9.8020    -0.5430     2.2480 h1         1 07J       0.038950
     60 H22        -10.1440     1.0290     2.9760 h1         1 07J       0.038950
     61 H24        -12.1600    -0.5480     1.2060 h1         1 07J       0.029200
     62 H25        -12.3710     0.9690     2.0840 h1         1 07J       0.029200
     63 H26        -14.0550     0.8660     0.3480 hc         1 07J       0.037700
     64 H27        -12.9000     2.1380    -0.1000 hc         1 07J       0.037700
     65 H28        -12.8540     0.5540    -0.9150 hc         1 07J       0.037700
     66 H29        -10.1010    -0.8150    -0.2870 h1         1 07J       0.038950
     67 H30        -10.6170     0.5850    -1.2340 h1         1 07J       0.038950
     68 H31         -8.5140     1.7570    -0.8340 h1         1 07J       0.043200
     69 H32         -8.1860     0.1400    -1.4660 h1         1 07J       0.043200
@<TRIPOS>BOND
     1     1     2 2   
     2     2     3 1   
     3     2    16 1   
     4     3     4 1   
     5     3    39 1   
     6     4     5 ar  
     7     4    14 ar  
     8     5     6 1   
     9     5     7 ar  
    10     7     8 1   
    11     7    10 ar  
    12     8     9 1   
    13     9    40 1   
    14     9    41 1   
    15     9    42 1   
    16    10    11 ar  
    17    10    43 1   
    18    11    12 1   
    19    11    14 ar  
    20    12    13 1   
    21    13    44 1   
    22    13    45 1   
    23    13    46 1   
    24    14    15 1   
    25    16    17 1   
    26    16    18 1   
    27    17    47 1   
    28    17    48 1   
    29    17    49 1   
    30    18    19 ar  
    31    18    23 ar  
    32    19    20 ar  
    33    19    50 1   
    34    20    21 ar  
    35    20    24 1   
    36    21    22 ar  
    37    22    23 ar  
    38    22    51 1   
    39    24    25 1   
    40    24    52 1   
    41    25    26 ar  
    42    25    30 ar  
    43    26    27 ar  
    44    26    53 1   
    45    27    28 ar  
    46    27    54 1   
    47    28    29 ar  
    48    28    31 1   
    49    29    30 ar  
    50    29    55 1   
    51    30    56 1   
    52    31    32 1   
    53    31    38 1   
    54    32    33 1   
    55    32    57 1   
    56    32    58 1   
    57    33    34 1   
    58    33    59 1   
    59    33    60 1   
    60    34    35 1   
    61    34    37 1   
    62    35    36 1   
    63    35    61 1   
    64    35    62 1   
    65    36    63 1   
    66    36    64 1   
    67    36    65 1   
    68    37    38 1   
    69    37    66 1   
    70    37    67 1   
    71    38    68 1   
    72    38    69 1   
@<TRIPOS>SUBSTRUCTURE
     1 07J         1 TEMP              0 ****  ****    0 ROOT
