@<TRIPOS>MOLECULE
07J
   69    72     1     0     0
SMALL
abcg2


@<TRIPOS>ATOM
      1 O1           2.7200     0.4010    -0.6340 o          1 07J      -0.588100
      2 C2           3.1620    -0.5910    -1.1780 c          1 07J       0.670100
      3 N3           4.4700    -0.9670    -1.0380 ns         1 07J      -0.171000
      4 C4           5.3420    -0.2060    -0.2510 ca         1 07J       0.049000
      5 C5           5.7860    -0.6950     0.9720 ca         1 07J       0.034500
      6 CL1          5.2180    -2.2170     1.5470 cl         1 07J      -0.163500
      7 C7           6.6820     0.0370     1.7520 ca         1 07J       0.201600
      8 O8           7.0580    -0.5150     2.9070 os         1 07J      -0.319100
      9 C9           7.9220     0.2110     3.7650 c3         1 07J       0.147400
     10 C10          7.1140     1.2810     1.3040 ca         1 07J      -0.287000
     11 C11          6.6710     1.7870     0.0850 ca         1 07J       0.201600
     12 O12          7.0460     2.9680    -0.4130 os         1 07J      -0.319100
     13 C13          7.9120     3.7890     0.3510 c3         1 07J       0.147400
     14 C14          5.7930     1.0320    -0.6950 ca         1 07J       0.034500
     15 CL2          5.2930     1.6410    -2.2240 cl         1 07J      -0.163500
     16 N16          2.4200    -1.4120    -2.0060 n          1 07J      -0.413300
     17 C17          3.0910    -2.3800    -2.8660 c3         1 07J       0.086300
     18 C18          1.0290    -1.2870    -2.0770 ca         1 07J       0.290900
     19 C19          0.2510    -0.9060    -1.0030 ca         1 07J      -0.297000
     20 C20         -1.1370    -0.8420    -1.2120 ca         1 07J       0.399900
     21 N21         -1.6770    -1.1580    -2.3900 nb         1 07J      -0.263000
     22 C22         -0.8320    -1.5300    -3.3340 ca         1 07J       0.183900
     23 N23          0.4790    -1.6090    -3.2540 nb         1 07J      -0.268000
     24 N24         -1.9250    -0.4590    -0.1800 nu         1 07J      -0.927900
     25 C25         -3.3130    -0.3390    -0.0640 ca         1 07J       0.276000
     26 C26         -4.2410    -0.5810    -1.0790 ca         1 07J      -0.120000
     27 C27         -5.5960    -0.4310    -0.8410 ca         1 07J      -0.133500
     28 C28         -6.1000    -0.0230     0.3990 ca         1 07J       0.266000
     29 C29         -5.1610     0.2250     1.4050 ca         1 07J      -0.133500
     30 C30         -3.8050     0.0610     1.1780 ca         1 07J      -0.120000
     31 N31         -7.4790     0.0900     0.6050 nh         1 07J      -0.780400
     32 C32         -7.9310     0.3990     1.9450 c6         1 07J       0.194800
     33 C33         -9.4270     0.1750     2.0670 c6         1 07J       0.158800
     34 N34        -10.1600     0.9630     1.0980 n3         1 07J      -0.717600
     35 C35        -11.5950     0.8230     1.2800 c3         1 07J       0.168800
     36 C36        -12.4090     1.8200     0.4730 c3         1 07J      -0.090100
     37 C37         -9.7230     0.6000    -0.2350 c6         1 07J       0.158800
     38 C38         -8.2340     0.8310    -0.3960 c6         1 07J       0.194800
     39 H1           4.7570    -1.9100    -1.2530 hn         1 07J       0.171000
     40 H2           7.4780     1.1600     4.0730 h1         1 07J       0.045867
     41 H3           8.0710    -0.4100     4.6430 h1         1 07J       0.045867
     42 H4           8.8900     0.4020     3.2980 h1         1 07J       0.045867
     43 H5           7.8020     1.8580     1.9050 ha         1 07J       0.128000
     44 H6           8.0650     4.6940    -0.2310 h1         1 07J       0.045867
     45 H7           7.4700     4.0570     1.3130 h1         1 07J       0.045867
     46 H8           8.8800     3.3120     0.5210 h1         1 07J       0.045867
     47 H9           3.4890    -3.2160    -2.2880 h1         1 07J       0.052700
     48 H10          2.3770    -2.7790    -3.5770 h1         1 07J       0.052700
     49 H11          3.8990    -1.9120    -3.4260 h1         1 07J       0.052700
     50 H12          0.6650    -0.6730    -0.0360 ha         1 07J       0.150000
     51 H13         -1.2710    -1.7970    -4.2900 h5         1 07J       0.046100
     52 H14         -1.4230    -0.2240     0.6620 hn         1 07J       0.498000
     53 H15         -3.9120    -0.9000    -2.0540 ha         1 07J       0.128500
     54 H16         -6.2750    -0.6560    -1.6540 ha         1 07J       0.114500
     55 H17         -5.4680     0.5590     2.3860 ha         1 07J       0.114500
     56 H18         -3.1150     0.2620     1.9900 ha         1 07J       0.128500
     57 H19         -7.4350    -0.2580     2.6600 h1         1 07J       0.043200
     58 H20         -7.6920     1.4350     2.2310 h1         1 07J       0.043200
     59 H21         -9.6360    -0.9040     1.9600 h1         1 07J       0.038950
     60 H22         -9.7380     0.4630     3.0740 h1         1 07J       0.038950
     61 H24        -11.9320    -0.2020     1.0490 h1         1 07J       0.029200
     62 H25        -11.8060     0.9820     2.3410 h1         1 07J       0.029200
     63 H26        -13.4660     1.7200     0.7200 hc         1 07J       0.037700
     64 H27        -12.1070     2.8430     0.6990 hc         1 07J       0.037700
     65 H28        -12.3150     1.6690    -0.6030 hc         1 07J       0.037700
     66 H29         -9.9560    -0.4550    -0.4640 h1         1 07J       0.038950
     67 H30        -10.2360     1.2120    -0.9790 h1         1 07J       0.038950
     68 H31         -8.0230     1.9080    -0.3250 h1         1 07J       0.043200
     69 H32         -7.9470     0.5100    -1.3960 h1         1 07J       0.043200
@<TRIPOS>BOND
     1     1     2 2   
     2     2     3 1   
     3     2    16 1   
     4     3     4 1   
     5     3    39 1   
     6     4     5 ar  
     7     4    14 ar  
     8     5     6 1   
     9     5     7 ar  
    10     7     8 1   
    11     7    10 ar  
    12     8     9 1   
    13     9    40 1   
    14     9    41 1   
    15     9    42 1   
    16    10    11 ar  
    17    10    43 1   
    18    11    12 1   
    19    11    14 ar  
    20    12    13 1   
    21    13    44 1   
    22    13    45 1   
    23    13    46 1   
    24    14    15 1   
    25    16    17 1   
    26    16    18 1   
    27    17    47 1   
    28    17    48 1   
    29    17    49 1   
    30    18    19 ar  
    31    18    23 ar  
    32    19    20 ar  
    33    19    50 1   
    34    20    21 ar  
    35    20    24 1   
    36    21    22 ar  
    37    22    23 ar  
    38    22    51 1   
    39    24    25 1   
    40    24    52 1   
    41    25    26 ar  
    42    25    30 ar  
    43    26    27 ar  
    44    26    53 1   
    45    27    28 ar  
    46    27    54 1   
    47    28    29 ar  
    48    28    31 1   
    49    29    30 ar  
    50    29    55 1   
    51    30    56 1   
    52    31    32 1   
    53    31    38 1   
    54    32    33 1   
    55    32    57 1   
    56    32    58 1   
    57    33    34 1   
    58    33    59 1   
    59    33    60 1   
    60    34    35 1   
    61    34    37 1   
    62    35    36 1   
    63    35    61 1   
    64    35    62 1   
    65    36    63 1   
    66    36    64 1   
    67    36    65 1   
    68    37    38 1   
    69    37    66 1   
    70    37    67 1   
    71    38    68 1   
    72    38    69 1   
@<TRIPOS>SUBSTRUCTURE
     1 07J         1 TEMP              0 ****  ****    0 ROOT
