@<TRIPOS>MOLECULE
07K
   22    23     1     0     0
SMALL
bcc


@<TRIPOS>ATOM
      1 C10          1.4010    -2.1070    -0.0570 ca         1 07K      -0.134000
      2 C01         -0.4550    -0.5670     0.0090 ca         1 07K      -0.191300
      3 C02          0.4480     0.5270     0.0060 ca         1 07K       0.432600
      4 N03          0.0460     1.8190     0.0430 nb         1 07K      -0.702000
      5 C04         -1.2450     2.0440     0.0830 ca         1 07K       0.459200
      6 C05         -2.2310     1.0570     0.0840 ca         1 07K      -0.366300
      7 C06         -1.8590    -0.2780     0.0450 ca         1 07K       0.230600
      8 N07         -2.7820    -1.2660     0.0830 nv         1 07K      -0.847200
      9 C08          1.8510     0.2770    -0.0340 ca         1 07K      -0.118600
     10 C09          2.2960    -1.0220    -0.0660 ca         1 07K      -0.120000
     11 C11          0.0510    -1.8850    -0.0180 ca         1 07K      -0.111000
     12 C12          2.8080     1.4280    -0.0390 c3         1 07K      -0.036800
     13 H1           1.7840    -3.1190    -0.0770 ha         1 07K       0.131000
     14 H2          -1.5540     3.0840     0.1130 h4         1 07K       0.012100
     15 H3          -3.2760     1.3380     0.1130 ha         1 07K       0.137000
     16 H4          -2.5450    -2.1930    -0.2220 hn         1 07K       0.418300
     17 H5          -3.7450    -1.0180    -0.0690 hn         1 07K       0.418300
     18 H6           3.3610    -1.2160    -0.0970 ha         1 07K       0.131000
     19 H7          -0.6150    -2.7380    -0.0030 ha         1 07K       0.121000
     20 H8           2.6830     2.0570     0.8430 hc         1 07K       0.045700
     21 H9           3.8380     1.0730    -0.0590 hc         1 07K       0.045700
     22 H10          2.6560     2.0720    -0.9060 hc         1 07K       0.045700
@<TRIPOS>BOND
     1     1    10 ar  
     2     1    11 ar  
     3     1    13 1   
     4     2     3 ar  
     5     2     7 ar  
     6     2    11 ar  
     7     3     4 ar  
     8     3     9 ar  
     9     4     5 ar  
    10     5     6 ar  
    11     5    14 1   
    12     6     7 ar  
    13     6    15 1   
    14     7     8 1   
    15     8    16 1   
    16     8    17 1   
    17     9    10 ar  
    18     9    12 1   
    19    10    18 1   
    20    11    19 1   
    21    12    20 1   
    22    12    21 1   
    23    12    22 1   
@<TRIPOS>SUBSTRUCTURE
     1 07K         1 TEMP              0 ****  ****    0 ROOT
