@<TRIPOS>MOLECULE
07K
   22    23     1     0     0
SMALL
No Charge or Current Charge


@<TRIPOS>ATOM
      1 C10          1.4190    -2.1140    -0.0580 ca         1 07K      -0.116000
      2 C01         -0.4550    -0.5490     0.0140 ca         1 07K      -0.126000
      3 C02          0.4500     0.5470     0.0090 ca         1 07K       0.302000
      4 N03          0.0040     1.8280     0.0420 nb         1 07K      -0.702000
      5 C04         -1.3210     2.0660     0.0820 ca         1 07K       0.393900
      6 C05         -2.2710     1.0470     0.0880 ca         1 07K      -0.283000
      7 C06         -1.8400    -0.2740     0.0530 ca         1 07K       0.369000
      8 N07         -2.7960    -1.2560     0.0550 nv         1 07K      -1.096000
      9 C08          1.8460     0.2850    -0.0320 ca         1 07K      -0.053300
     10 C09          2.3180    -1.0410    -0.0650 ca         1 07K      -0.102000
     11 C11          0.0390    -1.8750    -0.0180 ca         1 07K      -0.093000
     12 C12          2.8610     1.4280    -0.0400 c3         1 07K      -0.036800
     13 H1           1.7930    -3.1360    -0.0820 ha         1 07K       0.113000
     14 H2          -1.6270     3.1120     0.1090 h4         1 07K       0.012100
     15 H3          -3.3270     1.2950     0.1210 ha         1 07K       0.119000
     16 H4          -2.5300    -2.2090    -0.1760 hn         1 07K       0.473500
     17 H5          -3.7710    -1.0010    -0.0940 hn         1 07K       0.473500
     18 H6           3.3860    -1.2420    -0.0960 ha         1 07K       0.113000
     19 H7          -0.6330    -2.7280    -0.0100 ha         1 07K       0.103000
     20 H8           2.7640     2.0470     0.8600 hc         1 07K       0.045700
     21 H9           3.8930     1.0600    -0.0740 hc         1 07K       0.045700
     22 H10          2.7160     2.0770    -0.9120 hc         1 07K       0.045700
@<TRIPOS>BOND
     1     1    10 ar  
     2     1    11 ar  
     3     1    13 1   
     4     2     3 ar  
     5     2     7 ar  
     6     2    11 ar  
     7     3     4 ar  
     8     3     9 ar  
     9     4     5 ar  
    10     5     6 ar  
    11     5    14 1   
    12     6     7 ar  
    13     6    15 1   
    14     7     8 1   
    15     8    16 1   
    16     8    17 1   
    17     9    10 ar  
    18     9    12 1   
    19    10    18 1   
    20    11    19 1   
    21    12    20 1   
    22    12    21 1   
    23    12    22 1   
@<TRIPOS>SUBSTRUCTURE
     1 07K         1 TEMP              0 ****  ****    0 ROOT
