@<TRIPOS>MOLECULE
07L
   18    19     1     0     0
SMALL
abcg2


@<TRIPOS>ATOM
      1 O11         -3.2890     1.2780     0.0660 o          1 07L      -0.482000
      2 C9          -2.3560     0.5140     0.0440 c          1 07L       0.673300
      3 C8          -2.4290    -0.9280    -0.0300 cc         1 07L      -0.335200
      4 C7          -1.3080    -1.6750    -0.0470 cd         1 07L      -0.052200
      5 C2          -0.0190    -1.0600     0.0050 ca         1 07L      -0.203800
      6 O10         -1.1080     1.0620     0.0920 os         1 07L      -0.341200
      7 C3           0.0300     0.3330     0.0740 ca         1 07L       0.220100
      8 C4           1.2300     1.0240     0.1250 ca         1 07L      -0.245000
      9 C5           2.4170     0.3010     0.1070 ca         1 07L       0.195100
     10 O12          3.6160     0.8930     0.1500 oh         1 07L      -0.522100
     11 C6           2.3960    -1.1010     0.0390 ca         1 07L      -0.174000
     12 C1           1.1930    -1.7610    -0.0100 ca         1 07L      -0.013000
     13 H1          -3.4130    -1.3710    -0.0700 ha         1 07L       0.215000
     14 H2          -1.3720    -2.7550    -0.1020 ha         1 07L       0.191000
     15 H3           1.2320     2.1060     0.1770 ha         1 07L       0.140000
     16 H4           3.5270     1.8530     0.1800 ho         1 07L       0.475000
     17 H5           3.3280    -1.6500     0.0260 ha         1 07L       0.138000
     18 H6           1.1740    -2.8420    -0.0620 ha         1 07L       0.122000
@<TRIPOS>BOND
     1     1     2 2   
     2     2     3 1   
     3     2     6 1   
     4     3     4 2   
     5     3    13 1   
     6     4     5 1   
     7     4    14 1   
     8     5     7 ar  
     9     5    12 ar  
    10     6     7 1   
    11     7     8 ar  
    12     8     9 ar  
    13     8    15 1   
    14     9    10 1   
    15     9    11 ar  
    16    10    16 1   
    17    11    12 ar  
    18    11    17 1   
    19    12    18 1   
@<TRIPOS>SUBSTRUCTURE
     1 07L         1 TEMP              0 ****  ****    0 ROOT
