@<TRIPOS>MOLECULE
07L
   18    19     1     0     0
SMALL
No Charge or Current Charge


@<TRIPOS>ATOM
      1 O11         -3.3850     1.2400     0.0620 o          1 07L      -0.482000
      2 C9          -2.3810     0.5440     0.0440 c          1 07L       0.673300
      3 C8          -2.4440    -0.9260    -0.0270 cc         1 07L      -0.335200
      4 C7          -1.3100    -1.7010    -0.0470 cd         1 07L      -0.052200
      5 C2          -0.0090    -1.0450     0.0040 ca         1 07L      -0.203800
      6 O10         -1.1240     1.0930     0.0890 os         1 07L      -0.341200
      7 C3           0.0370     0.3580     0.0710 ca         1 07L       0.220100
      8 C4           1.2680     1.0260     0.1220 ca         1 07L      -0.245000
      9 C5           2.4600     0.2880     0.1050 ca         1 07L       0.195100
     10 O12          3.6610     0.9260     0.1530 oh         1 07L      -0.522100
     11 C6           2.4210    -1.1120     0.0370 ca         1 07L      -0.174000
     12 C1           1.1880    -1.7850    -0.0140 ca         1 07L      -0.013000
     13 H1          -3.4410    -1.3500    -0.0630 ha         1 07L       0.215000
     14 H2          -1.3880    -2.7860    -0.1000 ha         1 07L       0.191000
     15 H3           1.2850     2.1110     0.1740 ha         1 07L       0.140000
     16 H4           3.4950     1.8920     0.1970 ho         1 07L       0.475000
     17 H5           3.3490    -1.6800     0.0240 ha         1 07L       0.138000
     18 H6           1.1650    -2.8720    -0.0660 ha         1 07L       0.122000
@<TRIPOS>BOND
     1     1     2 2   
     2     2     3 1   
     3     2     6 1   
     4     3     4 2   
     5     3    13 1   
     6     4     5 1   
     7     4    14 1   
     8     5     7 ar  
     9     5    12 ar  
    10     6     7 1   
    11     7     8 ar  
    12     8     9 ar  
    13     8    15 1   
    14     9    10 1   
    15     9    11 ar  
    16    10    16 1   
    17    11    12 ar  
    18    11    17 1   
    19    12    18 1   
@<TRIPOS>SUBSTRUCTURE
     1 07L         1 TEMP              0 ****  ****    0 ROOT
