@<TRIPOS>MOLECULE
07M
   35    37     1     0     0
SMALL
No Charge or Current Charge


@<TRIPOS>ATOM
      1 C1           3.4300    -0.3760     0.5030 ca         1 07M      -0.099300
      2 C2           1.9590    -0.7860     0.4640 c3         1 07M       0.103900
      3 C3          -4.0830     2.7230     0.0570 c6         1 07M       0.154600
      4 O4          -2.8720     3.0140    -0.6610 os         1 07M      -0.435000
      5 C5          -1.6920     2.4020    -0.0990 c6         1 07M       0.210900
      6 C6          -4.4230     1.2290    -0.0920 c6         1 07M      -0.083100
      7 C7          -3.1900     0.3260     0.0710 ca         1 07M       0.063700
      8 C8          -1.8960     0.8870     0.0620 ca         1 07M      -0.207300
      9 C9          -0.7860     0.0360     0.2250 ca         1 07M       0.532300
     10 N10         -0.9000    -1.2940     0.3690 nb         1 07M      -0.735000
     11 C11         -2.1240    -1.8270     0.3560 ca         1 07M       0.658300
     12 C12         -3.3020    -1.0740     0.2120 ca         1 07M      -0.186000
     13 C13         -4.5800    -1.7230     0.2040 cg         1 07M       0.323000
     14 N14         -5.6110    -2.2670     0.2000 n1         1 07M      -0.450000
     15 O15         -2.1310    -3.1760     0.5000 oh         1 07M      -0.627300
     16 S16          0.8780     0.7030     0.2650 ss         1 07M      -0.340300
     17 C17          4.1760    -0.1110    -0.6760 ca         1 07M       0.448000
     18 N18          5.4860     0.2570    -0.6460 nb         1 07M      -0.633000
     19 C19          6.0900     0.3760     0.5570 ca         1 07M       0.345900
     20 C20          5.4260     0.1380     1.7690 ca         1 07M      -0.147000
     21 C21          4.0760    -0.2430     1.7480 ca         1 07M      -0.062000
     22 C22          3.5790    -0.2190    -1.9910 cg         1 07M       0.216000
     23 N23          3.0900    -0.3160    -3.0500 n1         1 07M      -0.422000
     24 H1           1.7740    -1.4880    -0.3600 h1         1 07M       0.097200
     25 H2           1.6900    -1.2990     1.3970 h1         1 07M       0.097200
     26 H3          -3.9450     2.9800     1.1180 h1         1 07M       0.054700
     27 H4          -4.9010     3.3400    -0.3410 h1         1 07M       0.054700
     28 H5          -0.8460     2.6110    -0.7700 h1         1 07M       0.065200
     29 H6          -1.4750     2.8560     0.8790 h1         1 07M       0.065200
     30 H7          -5.1960     0.9700     0.6440 hc         1 07M       0.076200
     31 H8          -4.8650     1.0600    -1.0830 hc         1 07M       0.076200
     32 H10          7.1380     0.6730     0.5470 h4         1 07M       0.031100
     33 H11          5.9580     0.2500     2.7100 ha         1 07M       0.133000
     34 H12          3.5430    -0.4300     2.6790 ha         1 07M       0.130000
     35 H9          -3.0660    -3.4560     0.4780 ho         1 07M       0.492000
@<TRIPOS>BOND
     1     1     2 1   
     2     1    17 ar  
     3     1    21 ar  
     4     2    16 1   
     5     2    24 1   
     6     2    25 1   
     7     3     4 1   
     8     3     6 1   
     9     3    26 1   
    10     3    27 1   
    11     4     5 1   
    12     5     8 1   
    13     5    28 1   
    14     5    29 1   
    15     6     7 1   
    16     6    30 1   
    17     6    31 1   
    18     7     8 ar  
    19     7    12 ar  
    20     8     9 ar  
    21     9    10 ar  
    22     9    16 1   
    23    10    11 ar  
    24    11    12 ar  
    25    11    15 1   
    26    12    13 1   
    27    13    14 3   
    28    15    35 1   
    29    17    18 ar  
    30    17    22 1   
    31    18    19 ar  
    32    19    20 ar  
    33    19    32 1   
    34    20    21 ar  
    35    20    33 1   
    36    21    34 1   
    37    22    23 3   
@<TRIPOS>SUBSTRUCTURE
     1 07M         1 TEMP              0 ****  ****    0 ROOT
