@<TRIPOS>MOLECULE
07M
   35    37     1     0     0
SMALL
abcg2


@<TRIPOS>ATOM
      1 C1           3.3100    -0.3770     0.5720 ca         1 07M      -0.099300
      2 C2           1.8810    -0.8210     0.5850 c3         1 07M       0.103900
      3 C3          -3.9150     2.6750     0.1260 c6         1 07M       0.154600
      4 O4          -2.7420     3.0180    -0.5790 os         1 07M      -0.435000
      5 C5          -1.6120     2.3670    -0.0690 c6         1 07M       0.210900
      6 C6          -4.2850     1.2280    -0.1470 c6         1 07M      -0.083100
      7 C7          -3.0920     0.3380     0.0230 ca         1 07M       0.063700
      8 C8          -1.8220     0.8810     0.0710 ca         1 07M      -0.207300
      9 C9          -0.7540    -0.0050     0.2670 ca         1 07M       0.532300
     10 N10         -0.8870    -1.3130     0.3820 nb         1 07M      -0.735000
     11 C11         -2.0900    -1.8420     0.3140 ca         1 07M       0.658300
     12 C12         -3.2350    -1.0540     0.1370 ca         1 07M      -0.186000
     13 C13         -4.5130    -1.6630     0.0750 cg         1 07M       0.323000
     14 N14         -5.5410    -2.1850     0.0240 n1         1 07M      -0.450000
     15 O15         -2.1180    -3.1620     0.4320 oh         1 07M      -0.627300
     16 S16          0.8590     0.6710     0.3750 ss         1 07M      -0.340300
     17 C17          3.9990    -0.1370    -0.6160 ca         1 07M       0.448000
     18 N18          5.2630     0.2660    -0.6920 nb         1 07M      -0.633000
     19 C19          5.9130     0.4580     0.4430 ca         1 07M       0.345900
     20 C20          5.3310     0.2580     1.6900 ca         1 07M      -0.147000
     21 C21          4.0150    -0.1610     1.7500 ca         1 07M      -0.062000
     22 C22          3.3360    -0.3250    -1.8790 cg         1 07M       0.216000
     23 N23          2.8050    -0.4770    -2.8890 n1         1 07M      -0.422000
     24 H1           1.6610    -1.5220    -0.2180 h1         1 07M       0.097200
     25 H2           1.6330    -1.2970     1.5320 h1         1 07M       0.097200
     26 H3          -3.7810     2.8330     1.2040 h1         1 07M       0.054700
     27 H4          -4.7070     3.3410    -0.2140 h1         1 07M       0.054700
     28 H5          -0.7920     2.5680    -0.7630 h1         1 07M       0.065200
     29 H6          -1.3210     2.7880     0.9060 h1         1 07M       0.065200
     30 H7          -5.0890     0.9180     0.5240 hc         1 07M       0.076200
     31 H8          -4.6680     1.1180    -1.1660 hc         1 07M       0.076200
     32 H10          6.9420     0.7850     0.3620 h4         1 07M       0.031100
     33 H11          5.9030     0.4290     2.5910 ha         1 07M       0.133000
     34 H12          3.5330    -0.3280     2.7050 ha         1 07M       0.130000
     35 H9          -3.0120    -3.5250     0.3900 ho         1 07M       0.492000
@<TRIPOS>BOND
     1     1     2 1   
     2     1    17 ar  
     3     1    21 ar  
     4     2    16 1   
     5     2    24 1   
     6     2    25 1   
     7     3     4 1   
     8     3     6 1   
     9     3    26 1   
    10     3    27 1   
    11     4     5 1   
    12     5     8 1   
    13     5    28 1   
    14     5    29 1   
    15     6     7 1   
    16     6    30 1   
    17     6    31 1   
    18     7     8 ar  
    19     7    12 ar  
    20     8     9 ar  
    21     9    10 ar  
    22     9    16 1   
    23    10    11 ar  
    24    11    12 ar  
    25    11    15 1   
    26    12    13 1   
    27    13    14 3   
    28    15    35 1   
    29    17    18 ar  
    30    17    22 1   
    31    18    19 ar  
    32    19    20 ar  
    33    19    32 1   
    34    20    21 ar  
    35    20    33 1   
    36    21    34 1   
    37    22    23 3   
@<TRIPOS>SUBSTRUCTURE
     1 07M         1 TEMP              0 ****  ****    0 ROOT
