@<TRIPOS>MOLECULE
07N
   40    42     1     0     0
SMALL
abcg2


@<TRIPOS>ATOM
      1 C1           5.9640     3.0060     0.4540 c3         1 07N      -0.030800
      2 CL1          5.2170    -2.2460     0.5060 cl         1 07N      -0.126000
      3 C2           5.3770     1.6470     0.3600 cc         1 07N      -0.125300
      4 CL2          7.5200     0.1210     1.1790 cl         1 07N      -0.160000
      5 C3           5.9370     0.4120     0.6090 cd         1 07N       0.026000
      6 C4           4.9770    -0.5720     0.3100 cd         1 07N       0.118000
      7 C5           3.8340     0.0760    -0.1070 cc         1 07N      -0.227600
      8 N6           4.1120     1.4160    -0.0570 na         1 07N      -0.084000
      9 C8           2.5420    -0.4940    -0.5070 c          1 07N       0.640700
     10 O9           2.4530    -1.6520    -0.8890 o          1 07N      -0.575100
     11 N10          1.4870     0.3480    -0.4370 ns         1 07N      -0.503900
     12 C11          0.1520    -0.0360    -0.8330 c6         1 07N       0.081700
     13 C13         -0.6110     1.1650    -1.3770 c6         1 07N      -0.096400
     14 C14         -2.0260     0.7710    -1.7640 c6         1 07N       0.226800
     15 N15         -2.7080     0.1360    -0.6470 nh         1 07N      -0.776300
     16 C16         -2.0380    -1.0150    -0.0830 c6         1 07N       0.200800
     17 C17         -0.6160    -0.6810     0.3120 c6         1 07N       0.166300
     18 F19         -0.6410     0.2120     1.3840 f          1 07N      -0.264000
     19 C20         -4.0450     0.3030    -0.5050 cc         1 07N       0.632300
     20 N21         -4.7370     1.2010    -1.1530 nd         1 07N      -0.747000
     21 C22         -6.0470     1.1650    -0.7730 cd         1 07N       0.265900
     22 C23         -6.3990     0.2450     0.1570 cc         1 07N      -0.230600
     23 S24         -4.9870    -0.6640     0.6000 ss         1 07N      -0.086400
     24 C25         -7.7170    -0.0750     0.7860 c          1 07N       0.739600
     25 O26         -7.7000    -1.0050     1.6170 o          1 07N      -0.710500
     26 O27         -8.6890     0.6100     0.4210 o          1 07N      -0.710500
     27 H1           6.3730     3.3290    -0.5050 hc         1 07N       0.054367
     28 H1A          5.2160     3.7360     0.7600 hc         1 07N       0.054367
     29 H1B          6.7730     3.0240     1.1810 hc         1 07N       0.054367
     30 HN10         1.5710     1.2010     0.0950 hn         1 07N       0.312500
     31 H11          0.2370    -0.7870    -1.6220 h1         1 07N       0.084700
     32 H13         -0.6420     1.9680    -0.6360 hc         1 07N       0.052200
     33 H13A        -0.0980     1.5540    -2.2580 hc         1 07N       0.052200
     34 H14         -2.5890     1.6510    -2.0630 h1         1 07N       0.056200
     35 H14A        -2.0050     0.0880    -2.6230 h1         1 07N       0.056200
     36 H16         -2.5640    -1.3670     0.8050 h1         1 07N       0.059200
     37 H16A        -2.0150    -1.8510    -0.7950 h1         1 07N       0.059200
     38 H17         -0.1140    -1.5910     0.6470 h1         1 07N       0.067700
     39 H22         -6.7430     1.8600    -1.2240 h4         1 07N       0.039100
     40 HN6          3.5020     2.1440    -0.3940 hn         1 07N       0.354000
@<TRIPOS>BOND
     1     1     3 1   
     2     1    27 1   
     3     1    28 1   
     4     1    29 1   
     5     2     6 1   
     6     3     5 2   
     7     3     8 1   
     8     4     5 1   
     9     5     6 1   
    10     6     7 2   
    11     7     8 1   
    12     7     9 1   
    13     8    40 1   
    14     9    10 2   
    15     9    11 1   
    16    11    12 1   
    17    11    30 1   
    18    12    13 1   
    19    12    17 1   
    20    12    31 1   
    21    13    14 1   
    22    13    32 1   
    23    13    33 1   
    24    14    15 1   
    25    14    34 1   
    26    14    35 1   
    27    15    16 1   
    28    15    19 1   
    29    16    17 1   
    30    16    36 1   
    31    16    37 1   
    32    17    18 1   
    33    17    38 1   
    34    19    20 2   
    35    19    23 1   
    36    20    21 1   
    37    21    22 2   
    38    21    39 1   
    39    22    23 1   
    40    22    24 1   
    41    24    25 1   
    42    24    26 1   
@<TRIPOS>SUBSTRUCTURE
     1 07N         1 TEMP              0 ****  ****    0 ROOT
