@<TRIPOS>MOLECULE
07N
   40    42     1     0     0
SMALL
No Charge or Current Charge


@<TRIPOS>ATOM
      1 C1           5.9700     3.1340     0.8140 c3         1 07N      -0.030800
      2 Cl1          5.4850    -2.1190     0.0320 cl         1 07N      -0.126000
      3 C2           5.3930     1.7790     0.5020 cc         1 07N      -0.125300
      4 Cl2          7.6690     0.2280     0.8620 cl         1 07N      -0.160000
      5 C3           6.0020     0.5570     0.4960 cd         1 07N       0.026000
      6 C4           5.0620    -0.4340     0.1410 cd         1 07N       0.118000
      7 C5           3.8420     0.1640    -0.0820 cc         1 07N      -0.227600
      8 N6           4.0620     1.5390     0.1460 na         1 07N      -0.084000
      9 C8           2.6060    -0.5590    -0.4750 c          1 07N       0.640700
     10 O9           2.5270    -1.7650    -0.6480 o          1 07N      -0.575100
     11 N10          1.5100     0.2580    -0.6360 ns         1 07N      -0.503900
     12 C11          0.1550    -0.1980    -1.0000 c6         1 07N       0.081700
     13 C13         -0.6720     0.9770    -1.5760 c6         1 07N      -0.096400
     14 C14         -2.0990     0.5270    -1.9700 c6         1 07N       0.226800
     15 N15         -2.8090    -0.0870    -0.8090 nh         1 07N      -0.776300
     16 C16         -2.0570    -1.2080    -0.1520 c6         1 07N       0.200800
     17 C17         -0.5950    -0.8200     0.2140 c6         1 07N       0.166300
     18 F19         -0.6230     0.1160     1.2770 f          1 07N      -0.264000
     19 C20         -4.1280     0.2040    -0.5060 cc         1 07N       0.632300
     20 N21         -4.8100     1.1050    -1.1940 nd         1 07N      -0.747000
     21 C22         -6.1030     1.2100    -0.6980 cd         1 07N       0.265900
     22 C23         -6.3810     0.3830     0.3600 cc         1 07N      -0.230600
     23 S24         -4.9990    -0.5890     0.7930 ss         1 07N      -0.086400
     24 C25         -7.6930     0.3390     1.0310 c          1 07N       0.739600
     25 O26         -7.8480    -0.4320     1.9670 o          1 07N      -0.710500
     26 O27         -8.5810     1.0750     0.6290 o          1 07N      -0.710500
     27 H1           6.7850     3.3780     0.1230 hc         1 07N       0.054367
     28 H1A          5.2120     3.9230     0.7320 hc         1 07N       0.054367
     29 H1B          6.3730     3.1600     1.8330 hc         1 07N       0.054367
     30 HN10         1.6430     1.2440    -0.4610 hn         1 07N       0.312500
     31 H11          0.2500    -0.9700    -1.7800 h1         1 07N       0.084700
     32 H13         -0.7370     1.7930    -0.8430 hc         1 07N       0.052200
     33 H13A        -0.1660     1.3900    -2.4590 hc         1 07N       0.052200
     34 H14         -2.6330     1.4030    -2.3650 h1         1 07N       0.056200
     35 H14A        -2.0340    -0.2010    -2.7930 h1         1 07N       0.056200
     36 H16         -2.5480    -1.5520     0.7680 h1         1 07N       0.059200
     37 H16A        -2.0280    -2.0730    -0.8310 h1         1 07N       0.059200
     38 H17         -0.0580    -1.7070     0.5770 h1         1 07N       0.067700
     39 H22         -6.7920     1.9110    -1.1560 h4         1 07N       0.039100
     40 HN6          3.3620     2.2700     0.0660 hn         1 07N       0.354000
@<TRIPOS>BOND
     1     1     3 1   
     2     1    27 1   
     3     1    28 1   
     4     1    29 1   
     5     2     6 1   
     6     3     5 2   
     7     3     8 1   
     8     4     5 1   
     9     5     6 1   
    10     6     7 2   
    11     7     8 1   
    12     7     9 1   
    13     8    40 1   
    14     9    10 2   
    15     9    11 1   
    16    11    12 1   
    17    11    30 1   
    18    12    13 1   
    19    12    17 1   
    20    12    31 1   
    21    13    14 1   
    22    13    32 1   
    23    13    33 1   
    24    14    15 1   
    25    14    34 1   
    26    14    35 1   
    27    15    16 1   
    28    15    19 1   
    29    16    17 1   
    30    16    36 1   
    31    16    37 1   
    32    17    18 1   
    33    17    38 1   
    34    19    20 2   
    35    19    23 1   
    36    20    21 1   
    37    21    22 2   
    38    21    39 1   
    39    22    23 1   
    40    22    24 1   
    41    24    25 1   
    42    24    26 1   
@<TRIPOS>SUBSTRUCTURE
     1 07N         1 TEMP              0 ****  ****    0 ROOT
