@<TRIPOS>MOLECULE
07P
  171   172     1     0     0
SMALL
No Charge or Current Charge


@<TRIPOS>ATOM
      1 CCL         24.1070    11.9910    -0.5300 c3         1 07P      -0.088100
      2 CCK         22.7500    11.5780    -1.1300 c3         1 07P      -0.074400
      3 CCJ         22.0520    10.4550    -0.3310 c3         1 07P      -0.075400
      4 CCI         20.6920    10.0400    -0.9330 c3         1 07P      -0.074400
      5 CCH         19.9940     8.9170    -0.1350 c3         1 07P      -0.074400
      6 CCG         18.6340     8.5030    -0.7370 c3         1 07P      -0.074400
      7 CCF         17.9360     7.3800     0.0610 c3         1 07P      -0.074400
      8 CCE         16.5760     6.9650    -0.5410 c3         1 07P      -0.075400
      9 CCD         15.8790     5.8410     0.2570 c3         1 07P      -0.072400
     10 CCC         14.5200     5.4250    -0.3450 c3         1 07P      -0.045400
     11 CCB         13.8400     4.3150     0.4490 cx         1 07P      -0.117700
     12 CCA         14.1950     2.8620     0.2230 cx         1 07P      -0.133400
     13 CBZ         12.8440     3.3880    -0.2070 cx         1 07P      -0.116700
     14 CBY         11.5690     2.9690     0.5160 c3         1 07P      -0.046400
     15 CAH         11.0130     1.6210     0.0090 c3         1 07P      -0.072400
     16 CAI          9.7200     1.1870     0.7350 c3         1 07P      -0.075400
     17 CAJ          9.1660    -0.1620     0.2270 c3         1 07P      -0.073400
     18 CAF          7.8730    -0.5950     0.9530 c3         1 07P      -0.076400
     19 CAE          7.3170    -1.9440     0.4440 c3         1 07P      -0.070400
     20 CAD          6.0200    -2.3730     1.1720 c3         1 07P      -0.109400
     21 CAC          5.3970    -3.6950     0.6440 c3         1 07P       0.158300
     22 OAG          6.3480    -4.7580     0.8240 oh         1 07P      -0.650000
     23 CAB          4.0510    -4.0680     1.3400 c3         1 07P       0.080700
     24 CAA          3.4080    -5.3610     0.7760 c3         1 07P       0.147600
     25 O1           2.9480    -5.0960    -0.5670 os         1 07P      -0.483000
     26 C1           2.1920    -6.1470    -1.2000 c6         1 07P       0.362300
     27 O5           0.9580    -6.3690    -0.4810 os         1 07P      -0.452000
     28 C5           0.0440    -5.2380    -0.4860 c6         1 07P       0.172300
     29 C6          -1.1730    -5.5670     0.4400 c3         1 07P       0.170600
     30 O6          -0.7940    -5.8510     1.8030 oh         1 07P      -0.717000
     31 C4          -0.3890    -4.8780    -1.9440 c6         1 07P       0.146300
     32 O4          -1.1520    -5.9250    -2.5780 oh         1 07P      -0.715000
     33 C3           0.8910    -4.5980    -2.7860 c6         1 07P       0.138300
     34 O3           0.5430    -4.3550    -4.1630 oh         1 07P      -0.674000
     35 C2           1.9040    -5.7840    -2.6970 c6         1 07P       0.114300
     36 O2           3.1190    -5.4430    -3.4080 oh         1 07P      -0.710000
     37 NAW          3.0690    -2.9690     1.2780 ns         1 07P      -0.503900
     38 CAX          2.4460    -2.3940     2.3610 c          1 07P       0.603100
     39 OAY          2.7260    -2.6840     3.5150 o          1 07P      -0.607100
     40 CAZ          1.3890    -1.3430     2.0050 c3         1 07P      -0.155400
     41 CBA         -0.0410    -1.8990     2.1980 c3         1 07P      -0.078400
     42 CBB         -1.1410    -0.9190     1.7380 c3         1 07P      -0.074400
     43 CBC         -2.5650    -1.4920     1.9060 c3         1 07P      -0.073400
     44 CBD         -3.6680    -0.5170     1.4360 c3         1 07P      -0.075400
     45 CBE         -5.0920    -1.0930     1.6010 c3         1 07P      -0.074400
     46 CBF         -6.1940    -0.1190     1.1300 c3         1 07P      -0.074400
     47 CBG         -7.6180    -0.6950     1.2940 c3         1 07P      -0.074400
     48 CBH         -8.7210     0.2780     0.8220 c3         1 07P      -0.074400
     49 CBI        -10.1450    -0.2970     0.9860 c3         1 07P      -0.074400
     50 CBJ        -11.2480     0.6750     0.5140 c3         1 07P      -0.074400
     51 CBK        -12.6720     0.1000     0.6780 c3         1 07P      -0.074400
     52 CBL        -13.7750     1.0720     0.2050 c3         1 07P      -0.074400
     53 CBM        -15.1980     0.4970     0.3690 c3         1 07P      -0.074400
     54 CBN        -16.3010     1.4690    -0.1040 c3         1 07P      -0.074400
     55 CBO        -17.7250     0.8930     0.0610 c3         1 07P      -0.074400
     56 CBP        -18.8280     1.8650    -0.4120 c3         1 07P      -0.074400
     57 CBQ        -20.2520     1.2900    -0.2470 c3         1 07P      -0.074400
     58 CBR        -21.3550     2.2620    -0.7200 c3         1 07P      -0.074400
     59 CBS        -22.7790     1.6870    -0.5540 c3         1 07P      -0.074400
     60 CBT        -23.8820     2.6590    -1.0260 c3         1 07P      -0.074400
     61 CBU        -25.3060     2.0840    -0.8600 c3         1 07P      -0.074400
     62 CBV        -26.4090     3.0560    -1.3320 c3         1 07P      -0.075400
     63 CBW        -27.8330     2.4820    -1.1640 c3         1 07P      -0.075400
     64 CBX        -28.9340     3.4510    -1.6350 c3         1 07P      -0.088100
     65 H1          23.9820    12.3610     0.4950 hc         1 07P       0.031367
     66 H2          24.7980    11.1400    -0.5090 hc         1 07P       0.031367
     67 H3          24.5630    12.7890    -1.1290 hc         1 07P       0.031367
     68 H4          22.0950    12.4570    -1.1690 hc         1 07P       0.036700
     69 H5          22.9040    11.2470    -2.1640 hc         1 07P       0.036700
     70 H6          22.7110     9.5780    -0.2920 hc         1 07P       0.036700
     71 H7          21.9020    10.7890     0.7030 hc         1 07P       0.036700
     72 H8          20.0330    10.9170    -0.9720 hc         1 07P       0.036700
     73 H9          20.8420     9.7060    -1.9680 hc         1 07P       0.036700
     74 H10         20.6530     8.0410    -0.0960 hc         1 07P       0.037200
     75 H11         19.8430     9.2510     0.9000 hc         1 07P       0.037200
     76 H12         17.9750     9.3790    -0.7760 hc         1 07P       0.036700
     77 H13         18.7840     8.1690    -1.7710 hc         1 07P       0.036700
     78 H14         18.5950     6.5030     0.1000 hc         1 07P       0.037700
     79 H15         17.7860     7.7130     1.0960 hc         1 07P       0.037700
     80 H16         15.9170     7.8410    -0.5790 hc         1 07P       0.036700
     81 H17         16.7270     6.6320    -1.5760 hc         1 07P       0.036700
     82 H18         16.5380     4.9640     0.2950 hc         1 07P       0.039200
     83 H19         15.7280     6.1740     1.2910 hc         1 07P       0.039200
     84 H20         13.8590     6.3000    -0.3800 hc         1 07P       0.039700
     85 H21         14.6720     5.1060    -1.3840 hc         1 07P       0.039700
     86 H22         13.6320     4.6090     1.4760 hc         1 07P       0.074700
     87 H23         14.9160     2.6270    -0.5560 hc         1 07P       0.069700
     88 H24         14.2380     2.2110     1.0930 hc         1 07P       0.069700
     89 H25         12.6900     3.5140    -1.2770 hc         1 07P       0.075700
     90 H26         11.7540     2.8960     1.5950 hc         1 07P       0.039700
     91 H27         10.8060     3.7460     0.3820 hc         1 07P       0.039700
     92 H28         10.8140     1.6950    -1.0670 hc         1 07P       0.039700
     93 H29         11.7780     0.8450     0.1410 hc         1 07P       0.039700
     94 H30          9.9200     1.1120     1.8110 hc         1 07P       0.036200
     95 H31          8.9560     1.9630     0.6040 hc         1 07P       0.036200
     96 H32          8.9670    -0.0870    -0.8500 hc         1 07P       0.038700
     97 H33          9.9300    -0.9380     0.3580 hc         1 07P       0.038700
     98 H34          8.0730    -0.6710     2.0290 hc         1 07P       0.036700
     99 H35          7.1100     0.1820     0.8220 hc         1 07P       0.036700
    100 H36          7.1160    -1.8670    -0.6320 hc         1 07P       0.043700
    101 H37          8.0860    -2.7150     0.5710 hc         1 07P       0.043700
    102 H38          6.2180    -2.4670     2.2480 hc         1 07P       0.047700
    103 H39          5.2890    -1.5630     1.0620 hc         1 07P       0.047700
    104 H40          5.1880    -3.5630    -0.4280 h1         1 07P       0.086700
    105 H41          6.7770    -4.6170     1.6950 ho         1 07P       0.437000
    106 H42          4.2820    -4.2640     2.3950 h1         1 07P       0.085700
    107 H43          4.1310    -6.1860     0.7900 h1         1 07P       0.051700
    108 H44          2.5670    -5.6400     1.4250 h1         1 07P       0.051700
    109 H45          2.7860    -7.0740    -1.1800 h2         1 07P       0.072700
    110 H46          0.5580    -4.3690    -0.0490 h1         1 07P       0.054700
    111 H47         -1.8610    -4.7110     0.4140 h1         1 07P       0.038200
    112 H48         -1.7080    -6.4260     0.0130 h1         1 07P       0.038200
    113 H49         -1.6010    -6.1780     2.2640 ho         1 07P       0.505000
    114 H50         -0.9850    -3.9530    -1.9070 h1         1 07P       0.049700
    115 H51         -1.0560    -5.7420    -3.5440 ho         1 07P       0.522000
    116 H52          1.3770    -3.7040    -2.3650 h1         1 07P       0.062700
    117 H53          1.3910    -4.4380    -4.6600 ho         1 07P       0.469000
    118 H54          1.4420    -6.6670    -3.1620 h1         1 07P       0.064700
    119 H55          3.7010    -4.9950    -2.7480 ho         1 07P       0.512000
    120 H56          2.7530    -2.6730     0.3630 hn         1 07P       0.317500
    121 H57          1.5180    -0.4730     2.6590 hc         1 07P       0.056700
    122 H58          1.5040    -1.0420     0.9560 hc         1 07P       0.056700
    123 H59         -0.1410    -2.8360     1.6370 hc         1 07P       0.058700
    124 H60         -0.1940    -2.1470     3.2570 hc         1 07P       0.058700
    125 H61         -1.0560     0.0140     2.3100 hc         1 07P       0.035700
    126 H62         -0.9790    -0.6650     0.6830 hc         1 07P       0.035700
    127 H63         -2.6470    -2.4270     1.3380 hc         1 07P       0.037700
    128 H64         -2.7310    -1.7420     2.9610 hc         1 07P       0.037700
    129 H65         -3.5890     0.4170     2.0060 hc         1 07P       0.037700
    130 H66         -3.5010    -0.2660     0.3820 hc         1 07P       0.037700
    131 H67         -5.1700    -2.0280     1.0320 hc         1 07P       0.036700
    132 H68         -5.2590    -1.3440     2.6550 hc         1 07P       0.036700
    133 H69         -6.1160     0.8160     1.6980 hc         1 07P       0.037200
    134 H70         -6.0270     0.1320     0.0750 hc         1 07P       0.037200
    135 H71         -7.6960    -1.6300     0.7250 hc         1 07P       0.037200
    136 H72         -7.7860    -0.9460     2.3480 hc         1 07P       0.037200
    137 H73         -8.6430     1.2140     1.3900 hc         1 07P       0.037200
    138 H74         -8.5530     0.5290    -0.2330 hc         1 07P       0.037200
    139 H75        -10.2230    -1.2330     0.4180 hc         1 07P       0.037200
    140 H76        -10.3130    -0.5480     2.0410 hc         1 07P       0.037200
    141 H77        -11.1700     1.6110     1.0820 hc         1 07P       0.037200
    142 H78        -11.0800     0.9260    -0.5410 hc         1 07P       0.037200
    143 H79        -12.7490    -0.8360     0.1100 hc         1 07P       0.036700
    144 H80        -12.8400    -0.1500     1.7330 hc         1 07P       0.036700
    145 H81        -13.6970     2.0080     0.7730 hc         1 07P       0.037200
    146 H82        -13.6070     1.3220    -0.8500 hc         1 07P       0.037200
    147 H83        -15.2760    -0.4390    -0.1980 hc         1 07P       0.036700
    148 H84        -15.3670     0.2470     1.4240 hc         1 07P       0.036700
    149 H85        -16.2240     2.4050     0.4630 hc         1 07P       0.036700
    150 H86        -16.1330     1.7180    -1.1590 hc         1 07P       0.036700
    151 H87        -17.8030    -0.0430    -0.5060 hc         1 07P       0.037200
    152 H88        -17.8930     0.6440     1.1160 hc         1 07P       0.037200
    153 H89        -18.7500     2.8010     0.1540 hc         1 07P       0.036700
    154 H90        -18.6600     2.1140    -1.4680 hc         1 07P       0.036700
    155 H91        -20.3300     0.3540    -0.8140 hc         1 07P       0.036700
    156 H92        -20.4200     1.0400     0.8080 hc         1 07P       0.036700
    157 H93        -21.2770     3.1980    -0.1530 hc         1 07P       0.036700
    158 H94        -21.1880     2.5110    -1.7750 hc         1 07P       0.036700
    159 H95        -22.8570     0.7500    -1.1210 hc         1 07P       0.036700
    160 H96        -22.9460     1.4380     0.5010 hc         1 07P       0.036700
    161 H97        -23.8030     3.5950    -0.4600 hc         1 07P       0.036700
    162 H98        -23.7150     2.9070    -2.0820 hc         1 07P       0.036700
    163 H99        -25.3850     1.1470    -1.4260 hc         1 07P       0.036700
    164 H100       -25.4720     1.8350     0.1960 hc         1 07P       0.036700
    165 H101       -26.3300     3.9930    -0.7660 hc         1 07P       0.036700
    166 H102       -26.2430     3.3040    -2.3870 hc         1 07P       0.036700
    167 H103       -27.9160     1.5460    -1.7310 hc         1 07P       0.036700
    168 H104       -28.0040     2.2340    -0.1090 hc         1 07P       0.036700
    169 H105       -28.8120     3.6910    -2.6980 hc         1 07P       0.031367
    170 H106       -29.9240     3.0010    -1.4970 hc         1 07P       0.031367
    171 H107       -28.9000     4.3860    -1.0620 hc         1 07P       0.031367
@<TRIPOS>BOND
     1     1     2 1   
     2     1    65 1   
     3     1    66 1   
     4     1    67 1   
     5     2     3 1   
     6     2    68 1   
     7     2    69 1   
     8     3     4 1   
     9     3    70 1   
    10     3    71 1   
    11     4     5 1   
    12     4    72 1   
    13     4    73 1   
    14     5     6 1   
    15     5    74 1   
    16     5    75 1   
    17     6     7 1   
    18     6    76 1   
    19     6    77 1   
    20     7     8 1   
    21     7    78 1   
    22     7    79 1   
    23     8     9 1   
    24     8    80 1   
    25     8    81 1   
    26     9    10 1   
    27     9    82 1   
    28     9    83 1   
    29    10    11 1   
    30    10    84 1   
    31    10    85 1   
    32    11    12 1   
    33    11    13 1   
    34    11    86 1   
    35    12    13 1   
    36    12    87 1   
    37    12    88 1   
    38    13    14 1   
    39    13    89 1   
    40    14    15 1   
    41    14    90 1   
    42    14    91 1   
    43    15    16 1   
    44    15    92 1   
    45    15    93 1   
    46    16    17 1   
    47    16    94 1   
    48    16    95 1   
    49    17    18 1   
    50    17    96 1   
    51    17    97 1   
    52    18    19 1   
    53    18    98 1   
    54    18    99 1   
    55    19    20 1   
    56    19   100 1   
    57    19   101 1   
    58    20    21 1   
    59    20   102 1   
    60    20   103 1   
    61    21    22 1   
    62    21    23 1   
    63    21   104 1   
    64    22   105 1   
    65    23    24 1   
    66    23    37 1   
    67    23   106 1   
    68    24    25 1   
    69    24   107 1   
    70    24   108 1   
    71    25    26 1   
    72    26    27 1   
    73    26    35 1   
    74    26   109 1   
    75    27    28 1   
    76    28    29 1   
    77    28    31 1   
    78    28   110 1   
    79    29    30 1   
    80    29   111 1   
    81    29   112 1   
    82    30   113 1   
    83    31    32 1   
    84    31    33 1   
    85    31   114 1   
    86    32   115 1   
    87    33    34 1   
    88    33    35 1   
    89    33   116 1   
    90    34   117 1   
    91    35    36 1   
    92    35   118 1   
    93    36   119 1   
    94    37    38 1   
    95    37   120 1   
    96    38    39 2   
    97    38    40 1   
    98    40    41 1   
    99    40   121 1   
   100    40   122 1   
   101    41    42 1   
   102    41   123 1   
   103    41   124 1   
   104    42    43 1   
   105    42   125 1   
   106    42   126 1   
   107    43    44 1   
   108    43   127 1   
   109    43   128 1   
   110    44    45 1   
   111    44   129 1   
   112    44   130 1   
   113    45    46 1   
   114    45   131 1   
   115    45   132 1   
   116    46    47 1   
   117    46   133 1   
   118    46   134 1   
   119    47    48 1   
   120    47   135 1   
   121    47   136 1   
   122    48    49 1   
   123    48   137 1   
   124    48   138 1   
   125    49    50 1   
   126    49   139 1   
   127    49   140 1   
   128    50    51 1   
   129    50   141 1   
   130    50   142 1   
   131    51    52 1   
   132    51   143 1   
   133    51   144 1   
   134    52    53 1   
   135    52   145 1   
   136    52   146 1   
   137    53    54 1   
   138    53   147 1   
   139    53   148 1   
   140    54    55 1   
   141    54   149 1   
   142    54   150 1   
   143    55    56 1   
   144    55   151 1   
   145    55   152 1   
   146    56    57 1   
   147    56   153 1   
   148    56   154 1   
   149    57    58 1   
   150    57   155 1   
   151    57   156 1   
   152    58    59 1   
   153    58   157 1   
   154    58   158 1   
   155    59    60 1   
   156    59   159 1   
   157    59   160 1   
   158    60    61 1   
   159    60   161 1   
   160    60   162 1   
   161    61    62 1   
   162    61   163 1   
   163    61   164 1   
   164    62    63 1   
   165    62   165 1   
   166    62   166 1   
   167    63    64 1   
   168    63   167 1   
   169    63   168 1   
   170    64   169 1   
   171    64   170 1   
   172    64   171 1   
@<TRIPOS>SUBSTRUCTURE
     1 07P         1 TEMP              0 ****  ****    0 ROOT
