@<TRIPOS>MOLECULE
07P
  171   172     1     0     0
SMALL
abcg2


@<TRIPOS>ATOM
      1 CCL         23.6860    11.9940     0.2460 c3         1 07P      -0.088100
      2 CCK         22.7100    11.1930    -0.6050 c3         1 07P      -0.074400
      3 CCJ         21.7260    10.3800     0.2270 c3         1 07P      -0.075400
      4 CCI         20.7410     9.5790    -0.6170 c3         1 07P      -0.074400
      5 CCH         19.7480     8.7760     0.2140 c3         1 07P      -0.074400
      6 CCG         18.7570     7.9850    -0.6310 c3         1 07P      -0.074400
      7 CCF         17.7550     7.1900     0.1980 c3         1 07P      -0.074400
      8 CCE         16.7530     6.4170    -0.6500 c3         1 07P      -0.075400
      9 CCD         15.7430     5.6290     0.1750 c3         1 07P      -0.072400
     10 CCC         14.7180     4.8920    -0.6790 c3         1 07P      -0.045400
     11 CCB         13.7090     4.1300     0.1410 cx         1 07P      -0.117700
     12 CCA         14.0210     2.7420     0.6240 cx         1 07P      -0.133400
     13 CBZ         12.9730     2.9590    -0.4300 cx         1 07P      -0.116700
     14 CBY         11.5200     2.7320    -0.0980 c3         1 07P      -0.046400
     15 CAH         11.0990     1.2710    -0.2050 c3         1 07P      -0.072400
     16 CAI          9.6540     1.0410     0.2200 c3         1 07P      -0.075400
     17 CAJ          9.1780    -0.3960     0.0450 c3         1 07P      -0.073400
     18 CAF          7.7790    -0.6220     0.6050 c3         1 07P      -0.076400
     19 CAE          7.2320    -2.0220     0.3520 c3         1 07P      -0.070400
     20 CAD          5.8890    -2.2400     1.0380 c3         1 07P      -0.109400
     21 CAC          5.1950    -3.5360     0.6320 c3         1 07P       0.158300
     22 OAG          6.0140    -4.6670     0.8380 oh         1 07P      -0.650000
     23 CAB          3.8480    -3.7180     1.3570 c3         1 07P       0.080700
     24 CAA          3.1290    -5.0040     0.9730 c3         1 07P       0.147600
     25 O1           2.8160    -4.9220    -0.4030 os         1 07P      -0.483000
     26 C1           1.9890    -5.9220    -0.8960 c6         1 07P       0.362300
     27 O5           0.6870    -5.8510    -0.3840 os         1 07P      -0.452000
     28 C5          -0.0050    -4.6500    -0.6850 c6         1 07P       0.172300
     29 C6          -1.3590    -4.7070    -0.0110 c3         1 07P       0.170600
     30 O6          -1.1670    -4.7140     1.3840 oh         1 07P      -0.717000
     31 C4          -0.1200    -4.4320    -2.1890 c6         1 07P       0.146300
     32 O4          -0.9780    -5.4060    -2.7300 oh         1 07P      -0.715000
     33 C3           1.2700    -4.4970    -2.8180 c6         1 07P       0.138300
     34 O3           1.1100    -4.3940    -4.2140 oh         1 07P      -0.674000
     35 C2           1.9580    -5.7980    -2.4220 c6         1 07P       0.114300
     36 O2           3.2440    -5.8030    -2.9900 oh         1 07P      -0.710000
     37 NAW          2.9760    -2.5910     1.1130 ns         1 07P      -0.503900
     38 CAX          2.4050    -1.8360     2.0700 c          1 07P       0.603100
     39 OAY          2.6470    -1.9660     3.2630 o          1 07P      -0.607100
     40 CAZ          1.3800    -0.8450     1.5700 c3         1 07P      -0.155400
     41 CBA         -0.0220    -1.2820     2.0020 c3         1 07P      -0.078400
     42 CBB         -1.1260    -0.4770     1.3310 c3         1 07P      -0.074400
     43 CBC         -2.5160    -0.9290     1.7600 c3         1 07P      -0.073400
     44 CBD         -3.6400    -0.1770     1.0620 c3         1 07P      -0.075400
     45 CBE         -5.0270    -0.6210     1.5110 c3         1 07P      -0.074400
     46 CBF         -6.1560     0.1240     0.8110 c3         1 07P      -0.074400
     47 CBG         -7.5410    -0.3150     1.2690 c3         1 07P      -0.074400
     48 CBH         -8.6720     0.4280     0.5700 c3         1 07P      -0.074400
     49 CBI        -10.0560    -0.0100     1.0310 c3         1 07P      -0.074400
     50 CBJ        -11.1880     0.7320     0.3330 c3         1 07P      -0.074400
     51 CBK        -12.5720     0.2930     0.7940 c3         1 07P      -0.074400
     52 CBL        -13.7050     1.0340     0.0950 c3         1 07P      -0.074400
     53 CBM        -15.0880     0.5940     0.5560 c3         1 07P      -0.074400
     54 CBN        -16.2210     1.3340    -0.1450 c3         1 07P      -0.074400
     55 CBO        -17.6050     0.8930     0.3150 c3         1 07P      -0.074400
     56 CBP        -18.7370     1.6310    -0.3890 c3         1 07P      -0.074400
     57 CBQ        -20.1210     1.1890     0.0690 c3         1 07P      -0.074400
     58 CBR        -21.2530     1.9250    -0.6360 c3         1 07P      -0.074400
     59 CBS        -22.6380     1.4830    -0.1800 c3         1 07P      -0.074400
     60 CBT        -23.7680     2.2180    -0.8890 c3         1 07P      -0.074400
     61 CBU        -25.1540     1.7760    -0.4360 c3         1 07P      -0.074400
     62 CBV        -26.2820     2.5110    -1.1470 c3         1 07P      -0.075400
     63 CBW        -27.6700     2.0700    -0.6970 c3         1 07P      -0.075400
     64 CBX        -28.7890     2.8110    -1.4160 c3         1 07P      -0.088100
     65 H1          23.1590    12.6870     0.9060 hc         1 07P       0.031367
     66 H2          24.2900    11.3380     0.8760 hc         1 07P       0.031367
     67 H3          24.3690    12.5800    -0.3690 hc         1 07P       0.031367
     68 H4          22.1550    11.8710    -1.2610 hc         1 07P       0.036700
     69 H5          23.2670    10.5210    -1.2650 hc         1 07P       0.036700
     70 H6          22.2810     9.6990     0.8820 hc         1 07P       0.036700
     71 H7          21.1710    11.0530     0.8900 hc         1 07P       0.036700
     72 H8          20.1930    10.2600    -1.2770 hc         1 07P       0.036700
     73 H9          21.2960     8.9000    -1.2750 hc         1 07P       0.036700
     74 H10         20.2940     8.0890     0.8710 hc         1 07P       0.037200
     75 H11         19.1980     9.4550     0.8760 hc         1 07P       0.037200
     76 H12         18.2160     8.6730    -1.2900 hc         1 07P       0.036700
     77 H13         19.3050     7.3030    -1.2900 hc         1 07P       0.036700
     78 H14         18.2940     6.4940     0.8500 hc         1 07P       0.037700
     79 H15         17.2150     7.8730     0.8640 hc         1 07P       0.037700
     80 H16         16.2190     7.1170    -1.3040 hc         1 07P       0.036700
     81 H17         17.2910     5.7330    -1.3160 hc         1 07P       0.036700
     82 H18         16.2710     4.9100     0.8110 hc         1 07P       0.039200
     83 H19         15.2210     6.3110     0.8550 hc         1 07P       0.039200
     84 H20         14.1960     5.6140    -1.3190 hc         1 07P       0.039700
     85 H21         15.2330     4.2030    -1.3580 hc         1 07P       0.039700
     86 H22         13.1360     4.7480     0.8280 hc         1 07P       0.074700
     87 H23         14.9690     2.3050     0.3310 hc         1 07P       0.069700
     88 H24         13.6880     2.4520     1.6140 hc         1 07P       0.069700
     89 H25         13.2560     2.6730    -1.4410 hc         1 07P       0.075700
     90 H26         11.3240     3.0920     0.9180 hc         1 07P       0.039700
     91 H27         10.8930     3.3390    -0.7600 hc         1 07P       0.039700
     92 H28         11.2410     0.9260    -1.2350 hc         1 07P       0.039700
     93 H29         11.7630     0.6590     0.4150 hc         1 07P       0.039700
     94 H30          9.5420     1.3340     1.2700 hc         1 07P       0.036200
     95 H31          8.9970     1.7080    -0.3490 hc         1 07P       0.036200
     96 H32          9.1970    -0.6570    -1.0190 hc         1 07P       0.038700
     97 H33          9.8790    -1.0780     0.5370 hc         1 07P       0.038700
     98 H34          7.7930    -0.4260     1.6830 hc         1 07P       0.036700
     99 H35          7.0910     0.1140     0.1740 hc         1 07P       0.036700
    100 H36          7.1230    -2.1790    -0.7270 hc         1 07P       0.043700
    101 H37          7.9560    -2.7650     0.6970 hc         1 07P       0.043700
    102 H38          6.0230    -2.2190     2.1270 hc         1 07P       0.047700
    103 H39          5.2270    -1.4030     0.8010 hc         1 07P       0.047700
    104 H40          5.0110    -3.5050    -0.4470 h1         1 07P       0.086700
    105 H41          6.2930    -4.6760     1.7610 ho         1 07P       0.437000
    106 H42          4.0370    -3.7560     2.4330 h1         1 07P       0.085700
    107 H43          3.7580    -5.8770     1.1780 h1         1 07P       0.051700
    108 H44          2.2230    -5.0910     1.5820 h1         1 07P       0.051700
    109 H45          2.3580    -6.9140    -0.6000 h2         1 07P       0.072700
    110 H46          0.5390    -3.7890    -0.2740 h1         1 07P       0.054700
    111 H47         -1.9330    -3.8290    -0.3360 h1         1 07P       0.038200
    112 H48         -1.9080    -5.5950    -0.3450 h1         1 07P       0.038200
    113 H49         -2.0310    -4.7200     1.8040 ho         1 07P       0.505000
    114 H50         -0.5230    -3.4190    -2.3490 h1         1 07P       0.049700
    115 H51         -0.9090    -5.3580    -3.6900 ho         1 07P       0.522000
    116 H52          1.8570    -3.6510    -2.4340 h1         1 07P       0.062700
    117 H53          1.9420    -4.6400    -4.6320 ho         1 07P       0.469000
    118 H54          1.3590    -6.6370    -2.8000 h1         1 07P       0.064700
    119 H55          3.5340    -6.7150    -3.0910 ho         1 07P       0.512000
    120 H56          2.7180    -2.4150     0.1550 hn         1 07P       0.317500
    121 H57          1.6080     0.1410     1.9790 hc         1 07P       0.056700
    122 H58          1.4190    -0.7550     0.4810 hc         1 07P       0.056700
    123 H59         -0.1660    -2.3410     1.7670 hc         1 07P       0.058700
    124 H60         -0.1100    -1.1960     3.0890 hc         1 07P       0.058700
    125 H61         -1.0000     0.5880     1.5540 hc         1 07P       0.035700
    126 H62         -1.0330    -0.5750     0.2440 hc         1 07P       0.035700
    127 H63         -2.6190    -2.0030     1.5640 hc         1 07P       0.037700
    128 H64         -2.6160    -0.8100     2.8450 hc         1 07P       0.037700
    129 H65         -3.5280     0.8980     1.2450 hc         1 07P       0.037700
    130 H66         -3.5480    -0.3110    -0.0210 hc         1 07P       0.037700
    131 H67         -5.1370    -1.6970     1.3330 hc         1 07P       0.036700
    132 H68         -5.1180    -0.4840     2.5940 hc         1 07P       0.036700
    133 H69         -6.0430     1.2010     0.9840 hc         1 07P       0.037200
    134 H70         -6.0690    -0.0180    -0.2720 hc         1 07P       0.037200
    135 H71         -7.6540    -1.3920     1.0980 hc         1 07P       0.037200
    136 H72         -7.6270    -0.1710     2.3520 hc         1 07P       0.037200
    137 H73         -8.5590     1.5050     0.7400 hc         1 07P       0.037200
    138 H74         -8.5870     0.2830    -0.5120 hc         1 07P       0.037200
    139 H75        -10.1690    -1.0870     0.8630 hc         1 07P       0.037200
    140 H76        -10.1410     0.1360     2.1140 hc         1 07P       0.037200
    141 H77        -11.0750     1.8090     0.5010 hc         1 07P       0.037200
    142 H78        -11.1040     0.5860    -0.7500 hc         1 07P       0.037200
    143 H79        -12.6850    -0.7840     0.6270 hc         1 07P       0.036700
    144 H80        -12.6570     0.4400     1.8770 hc         1 07P       0.036700
    145 H81        -13.5920     2.1110     0.2630 hc         1 07P       0.037200
    146 H82        -13.6200     0.8870    -0.9880 hc         1 07P       0.037200
    147 H83        -15.2000    -0.4830     0.3890 hc         1 07P       0.036700
    148 H84        -15.1740     0.7420     1.6380 hc         1 07P       0.036700
    149 H85        -16.1100     2.4110     0.0220 hc         1 07P       0.036700
    150 H86        -16.1340     1.1870    -1.2270 hc         1 07P       0.036700
    151 H87        -17.7150    -0.1840     0.1480 hc         1 07P       0.037200
    152 H88        -17.6920     1.0410     1.3970 hc         1 07P       0.037200
    153 H89        -18.6270     2.7080    -0.2220 hc         1 07P       0.036700
    154 H90        -18.6490     1.4830    -1.4710 hc         1 07P       0.036700
    155 H91        -20.2300     0.1110    -0.0960 hc         1 07P       0.036700
    156 H92        -20.2100     1.3380     1.1510 hc         1 07P       0.036700
    157 H93        -21.1440     3.0030    -0.4700 hc         1 07P       0.036700
    158 H94        -21.1630     1.7770    -1.7180 hc         1 07P       0.036700
    159 H95        -22.7460     0.4050    -0.3450 hc         1 07P       0.036700
    160 H96        -22.7290     1.6330     0.9010 hc         1 07P       0.036700
    161 H97        -23.6600     3.2960    -0.7240 hc         1 07P       0.036700
    162 H98        -23.6760     2.0690    -1.9710 hc         1 07P       0.036700
    163 H99        -25.2610     0.6980    -0.6000 hc         1 07P       0.036700
    164 H100       -25.2470     1.9270     0.6450 hc         1 07P       0.036700
    165 H101       -26.1750     3.5890    -0.9830 hc         1 07P       0.036700
    166 H102       -26.1890     2.3600    -2.2290 hc         1 07P       0.036700
    167 H103       -27.7770     0.9930    -0.8620 hc         1 07P       0.036700
    168 H104       -27.7640     2.2210     0.3830 hc         1 07P       0.036700
    169 H105       -28.7380     2.6510    -2.4950 hc         1 07P       0.031367
    170 H106       -29.7720     2.4800    -1.0790 hc         1 07P       0.031367
    171 H107       -28.7240     3.8860    -1.2420 hc         1 07P       0.031367
@<TRIPOS>BOND
     1     1     2 1   
     2     1    65 1   
     3     1    66 1   
     4     1    67 1   
     5     2     3 1   
     6     2    68 1   
     7     2    69 1   
     8     3     4 1   
     9     3    70 1   
    10     3    71 1   
    11     4     5 1   
    12     4    72 1   
    13     4    73 1   
    14     5     6 1   
    15     5    74 1   
    16     5    75 1   
    17     6     7 1   
    18     6    76 1   
    19     6    77 1   
    20     7     8 1   
    21     7    78 1   
    22     7    79 1   
    23     8     9 1   
    24     8    80 1   
    25     8    81 1   
    26     9    10 1   
    27     9    82 1   
    28     9    83 1   
    29    10    11 1   
    30    10    84 1   
    31    10    85 1   
    32    11    12 1   
    33    11    13 1   
    34    11    86 1   
    35    12    13 1   
    36    12    87 1   
    37    12    88 1   
    38    13    14 1   
    39    13    89 1   
    40    14    15 1   
    41    14    90 1   
    42    14    91 1   
    43    15    16 1   
    44    15    92 1   
    45    15    93 1   
    46    16    17 1   
    47    16    94 1   
    48    16    95 1   
    49    17    18 1   
    50    17    96 1   
    51    17    97 1   
    52    18    19 1   
    53    18    98 1   
    54    18    99 1   
    55    19    20 1   
    56    19   100 1   
    57    19   101 1   
    58    20    21 1   
    59    20   102 1   
    60    20   103 1   
    61    21    22 1   
    62    21    23 1   
    63    21   104 1   
    64    22   105 1   
    65    23    24 1   
    66    23    37 1   
    67    23   106 1   
    68    24    25 1   
    69    24   107 1   
    70    24   108 1   
    71    25    26 1   
    72    26    27 1   
    73    26    35 1   
    74    26   109 1   
    75    27    28 1   
    76    28    29 1   
    77    28    31 1   
    78    28   110 1   
    79    29    30 1   
    80    29   111 1   
    81    29   112 1   
    82    30   113 1   
    83    31    32 1   
    84    31    33 1   
    85    31   114 1   
    86    32   115 1   
    87    33    34 1   
    88    33    35 1   
    89    33   116 1   
    90    34   117 1   
    91    35    36 1   
    92    35   118 1   
    93    36   119 1   
    94    37    38 1   
    95    37   120 1   
    96    38    39 2   
    97    38    40 1   
    98    40    41 1   
    99    40   121 1   
   100    40   122 1   
   101    41    42 1   
   102    41   123 1   
   103    41   124 1   
   104    42    43 1   
   105    42   125 1   
   106    42   126 1   
   107    43    44 1   
   108    43   127 1   
   109    43   128 1   
   110    44    45 1   
   111    44   129 1   
   112    44   130 1   
   113    45    46 1   
   114    45   131 1   
   115    45   132 1   
   116    46    47 1   
   117    46   133 1   
   118    46   134 1   
   119    47    48 1   
   120    47   135 1   
   121    47   136 1   
   122    48    49 1   
   123    48   137 1   
   124    48   138 1   
   125    49    50 1   
   126    49   139 1   
   127    49   140 1   
   128    50    51 1   
   129    50   141 1   
   130    50   142 1   
   131    51    52 1   
   132    51   143 1   
   133    51   144 1   
   134    52    53 1   
   135    52   145 1   
   136    52   146 1   
   137    53    54 1   
   138    53   147 1   
   139    53   148 1   
   140    54    55 1   
   141    54   149 1   
   142    54   150 1   
   143    55    56 1   
   144    55   151 1   
   145    55   152 1   
   146    56    57 1   
   147    56   153 1   
   148    56   154 1   
   149    57    58 1   
   150    57   155 1   
   151    57   156 1   
   152    58    59 1   
   153    58   157 1   
   154    58   158 1   
   155    59    60 1   
   156    59   159 1   
   157    59   160 1   
   158    60    61 1   
   159    60   161 1   
   160    60   162 1   
   161    61    62 1   
   162    61   163 1   
   163    61   164 1   
   164    62    63 1   
   165    62   165 1   
   166    62   166 1   
   167    63    64 1   
   168    63   167 1   
   169    63   168 1   
   170    64   169 1   
   171    64   170 1   
   172    64   171 1   
@<TRIPOS>SUBSTRUCTURE
     1 07P         1 TEMP              0 ****  ****    0 ROOT
