@<TRIPOS>MOLECULE
07Q
   43    45     1     0     0
SMALL
bcc


@<TRIPOS>ATOM
      1 O01         -0.4690    -2.1220    -0.2440 o          1 07Q      -0.625100
      2 C02         -0.5770    -0.9320    -0.5070 c          1 07Q       0.795100
      3 N03         -1.7210    -0.3260    -0.8620 ns         1 07Q      -0.573900
      4 C04         -2.9700    -1.0550    -1.0320 c3         1 07Q       0.176000
      5 C05         -3.0780    -1.6870    -2.4170 c3         1 07Q      -0.110100
      6 C06         -4.1190    -0.1210    -0.7270 ca         1 07Q      -0.071300
      7 C07         -4.4330     0.9330    -1.5860 ca         1 07Q      -0.164000
      8 C08         -5.4740     1.7880    -1.2700 ca         1 07Q      -0.091000
      9 C09         -6.2240     1.6140    -0.1120 ca         1 07Q      -0.208000
     10 C10         -5.9160     0.5610     0.7440 ca         1 07Q       0.143100
     11 O11         -6.5730     0.2960     1.8890 os         1 07Q      -0.315900
     12 C12         -7.6350     1.1490     2.2690 c3         1 07Q       0.124700
     13 C13         -4.8600    -0.2990     0.4290 ca         1 07Q      -0.144000
     14 N14          0.5180    -0.0960    -0.4410 ns         1 07Q      -0.557400
     15 C15          1.7740    -0.5150    -0.1070 cc         1 07Q       0.560300
     16 N16          2.7730     0.3040    -0.0660 nd         1 07Q      -0.717000
     17 C17          3.9290    -0.3440     0.2840 cd         1 07Q       0.425800
     18 C18          5.1730     0.4250     0.3830 ca         1 07Q      -0.074500
     19 C19          5.1730     1.8080     0.2150 ca         1 07Q      -0.227800
     20 C20          6.3700     2.5000     0.3190 ca         1 07Q       0.392700
     21 N21          7.5380     1.9220     0.5710 nb         1 07Q      -0.663000
     22 C22          7.5370     0.6020     0.7290 ca         1 07Q       0.392700
     23 C23          6.4010    -0.1820     0.6460 ca         1 07Q      -0.227800
     24 C24          3.7900    -1.6760     0.5110 cc         1 07Q      -0.243400
     25 S25          2.1560    -2.1620     0.2840 ss         1 07Q      -0.064300
     26 H1          -1.7020     0.6430    -1.1400 hn         1 07Q       0.318500
     27 H2          -2.9790    -1.8540    -0.2890 h1         1 07Q       0.083700
     28 H3          -4.0240    -2.2190    -2.5170 hc         1 07Q       0.048033
     29 H4          -3.0220    -0.9390    -3.2080 hc         1 07Q       0.048033
     30 H5          -2.2710    -2.4030    -2.5720 hc         1 07Q       0.048033
     31 H6          -3.8740     1.0890    -2.5010 ha         1 07Q       0.131000
     32 H7          -5.7190     2.6060    -1.9350 ha         1 07Q       0.132000
     33 H8          -7.0320     2.3010     0.0990 ha         1 07Q       0.138000
     34 H9          -7.2990     2.1790     2.4160 h1         1 07Q       0.042367
     35 H10         -8.4460     1.1440     1.5380 h1         1 07Q       0.042367
     36 H11         -8.0140     0.7670     3.2140 h1         1 07Q       0.042367
     37 H12         -4.6250    -1.1120     1.1060 ha         1 07Q       0.151000
     38 H13          0.4260     0.8920    -0.6320 hn         1 07Q       0.336500
     39 H14          4.2580     2.3430     0.0060 ha         1 07Q       0.148000
     40 H15          6.3790     3.5770     0.1910 h4         1 07Q       0.016600
     41 H16          8.4950     0.1370     0.9320 h4         1 07Q       0.016600
     42 H17          6.4870    -1.2520     0.7790 ha         1 07Q       0.148000
     43 H18          4.5410    -2.3960     0.8000 h4         1 07Q       0.178000
@<TRIPOS>BOND
     1     1     2 2   
     2     2     3 1   
     3     2    14 1   
     4     3     4 1   
     5     3    26 1   
     6     4     5 1   
     7     4     6 1   
     8     4    27 1   
     9     5    28 1   
    10     5    29 1   
    11     5    30 1   
    12     6     7 ar  
    13     6    13 ar  
    14     7     8 ar  
    15     7    31 1   
    16     8     9 ar  
    17     8    32 1   
    18     9    10 ar  
    19     9    33 1   
    20    10    11 1   
    21    10    13 ar  
    22    11    12 1   
    23    12    34 1   
    24    12    35 1   
    25    12    36 1   
    26    13    37 1   
    27    14    15 1   
    28    14    38 1   
    29    15    16 2   
    30    15    25 1   
    31    16    17 1   
    32    17    18 1   
    33    17    24 2   
    34    18    19 ar  
    35    18    23 ar  
    36    19    20 ar  
    37    19    39 1   
    38    20    21 ar  
    39    20    40 1   
    40    21    22 ar  
    41    22    23 ar  
    42    22    41 1   
    43    23    42 1   
    44    24    25 1   
    45    24    43 1   
@<TRIPOS>SUBSTRUCTURE
     1 07Q         1 TEMP              0 ****  ****    0 ROOT
