@<TRIPOS>MOLECULE
07Q
   43    45     1     0     0
SMALL
No Charge or Current Charge


@<TRIPOS>ATOM
      1 O01         -0.5370    -2.4960    -0.4320 o          1 07Q      -0.625100
      2 C02         -0.5510    -1.2830    -0.5250 c          1 07Q       0.661100
      3 N03         -1.6890    -0.5660    -0.7760 ns         1 07Q      -0.506900
      4 C04         -3.0120    -1.1540    -0.9780 c3         1 07Q       0.176000
      5 C05         -3.1470    -1.7490    -2.3960 c3         1 07Q      -0.110100
      6 C06         -4.0970    -0.1220    -0.6760 ca         1 07Q      -0.071300
      7 C07         -4.2530     1.0250    -1.4820 ca         1 07Q      -0.146000
      8 C08         -5.2500     1.9700    -1.1910 ca         1 07Q      -0.073000
      9 C09         -6.1010     1.7820    -0.0890 ca         1 07Q      -0.190000
     10 C10         -5.9530     0.6410     0.7280 ca         1 07Q       0.143100
     11 O11         -6.7570     0.4020     1.8240 os         1 07Q      -0.339100
     12 C12         -7.8090     1.3030     2.2150 c3         1 07Q       0.147900
     13 C13         -4.9530    -0.3000     0.4300 ca         1 07Q      -0.126000
     14 N14          0.5450    -0.4880    -0.3910 ns         1 07Q      -0.490400
     15 C15          1.8370    -0.8580    -0.1380 cc         1 07Q       0.560300
     16 N16          2.7280     0.1110    -0.0530 nd         1 07Q      -0.717000
     17 C17          3.9870    -0.4180     0.2050 cd         1 07Q       0.360500
     18 C18          5.1630     0.4730     0.3460 ca         1 07Q      -0.074500
     19 C19          5.0470     1.8760     0.2240 ca         1 07Q      -0.144500
     20 C20          6.1860     2.6870     0.3650 ca         1 07Q       0.327400
     21 N21          7.4190     2.1920     0.6160 nb         1 07Q      -0.663000
     22 C22          7.5410     0.8510     0.7340 ca         1 07Q       0.327400
     23 C23          6.4550    -0.0340     0.6090 ca         1 07Q      -0.144500
     24 C24          4.0230    -1.7910     0.3110 cc         1 07Q      -0.305000
     25 S25          2.4450    -2.4850     0.0860 ss         1 07Q       0.080600
     26 H1          -1.6110     0.4410    -0.8200 hn         1 07Q       0.318500
     27 H2          -3.1220    -1.9820    -0.2640 h1         1 07Q       0.083700
     28 H3          -4.1500    -2.1680    -2.5380 hc         1 07Q       0.048033
     29 H4          -2.9810    -0.9850    -3.1640 hc         1 07Q       0.048033
     30 H5          -2.4190    -2.5530    -2.5500 hc         1 07Q       0.048033
     31 H6          -3.5990     1.1890    -2.3360 ha         1 07Q       0.113000
     32 H7          -5.3620     2.8510    -1.8200 ha         1 07Q       0.114000
     33 H8          -6.8640     2.5280     0.1130 ha         1 07Q       0.120000
     34 H9          -7.4050     2.2960     2.4500 h1         1 07Q       0.042367
     35 H10         -8.5530     1.4040     1.4140 h1         1 07Q       0.042367
     36 H11         -8.3210     0.9240     3.1080 h1         1 07Q       0.042367
     37 H12         -4.8460    -1.1750     1.0670 ha         1 07Q       0.133000
     38 H13          0.3890     0.5010    -0.4920 hn         1 07Q       0.336500
     39 H14          4.0890     2.3460     0.0230 ha         1 07Q       0.130000
     40 H15          6.1080     3.7700     0.2730 h4         1 07Q       0.016600
     41 H16          8.5420     0.4720     0.9360 h4         1 07Q       0.016600
     42 H17          6.6360    -1.0980     0.7170 ha         1 07Q       0.130000
     43 H18          4.8630    -2.4410     0.5050 h4         1 07Q       0.160000
@<TRIPOS>BOND
     1     1     2 2   
     2     2     3 1   
     3     2    14 1   
     4     3     4 1   
     5     3    26 1   
     6     4     5 1   
     7     4     6 1   
     8     4    27 1   
     9     5    28 1   
    10     5    29 1   
    11     5    30 1   
    12     6     7 ar  
    13     6    13 ar  
    14     7     8 ar  
    15     7    31 1   
    16     8     9 ar  
    17     8    32 1   
    18     9    10 ar  
    19     9    33 1   
    20    10    11 1   
    21    10    13 ar  
    22    11    12 1   
    23    12    34 1   
    24    12    35 1   
    25    12    36 1   
    26    13    37 1   
    27    14    15 1   
    28    14    38 1   
    29    15    16 2   
    30    15    25 1   
    31    16    17 1   
    32    17    18 1   
    33    17    24 2   
    34    18    19 ar  
    35    18    23 ar  
    36    19    20 ar  
    37    19    39 1   
    38    20    21 ar  
    39    20    40 1   
    40    21    22 ar  
    41    22    23 ar  
    42    22    41 1   
    43    23    42 1   
    44    24    25 1   
    45    24    43 1   
@<TRIPOS>SUBSTRUCTURE
     1 07Q         1 TEMP              0 ****  ****    0 ROOT
