@<TRIPOS>MOLECULE
07R
   37    39     1     0     0
SMALL
No Charge or Current Charge


@<TRIPOS>ATOM
      1 O01         -1.0070    -2.6180    -0.0920 o          1 07R      -0.622100
      2 C02         -1.0560    -1.4070     0.0290 c          1 07R       0.658100
      3 N03         -2.2320    -0.7240     0.1510 ns         1 07R      -0.508900
      4 C04         -3.5480    -1.3590     0.1500 c3         1 07R       0.161300
      5 C05         -4.6550    -0.3270     0.3090 ca         1 07R      -0.079300
      6 C06         -5.1990     0.3140    -0.8220 ca         1 07R      -0.191000
      7 C07         -6.2170     1.2700    -0.6720 ca         1 07R       0.139100
      8 O08         -6.7430     1.8880    -1.7670 oh         1 07R      -0.531100
      9 C09         -6.6970     1.5920     0.6060 ca         1 07R      -0.133000
     10 C10         -6.1590     0.9590     1.7400 ca         1 07R      -0.076000
     11 C11         -5.1400     0.0020     1.5900 ca         1 07R      -0.134000
     12 N12          0.0310    -0.5890     0.0600 ns         1 07R      -0.489400
     13 C13          1.3520    -0.9280    -0.0340 cc         1 07R       0.558300
     14 N14          2.2260     0.0590     0.0230 nd         1 07R      -0.715000
     15 C15          3.5180    -0.4390    -0.0860 cd         1 07R       0.361500
     16 C16          4.6830     0.4760    -0.0490 ca         1 07R      -0.075500
     17 C17          6.0090     0.0010    -0.1570 ca         1 07R      -0.144000
     18 C18          7.0820     0.9080    -0.1170 ca         1 07R       0.326900
     19 N19          6.9170     2.2430     0.0220 nb         1 07R      -0.662000
     20 C20          5.6520     2.7080     0.1270 ca         1 07R       0.326900
     21 C21          4.5230     1.8720     0.0960 ca         1 07R      -0.144000
     22 C22          3.5970    -1.8070    -0.2250 cc         1 07R      -0.303000
     23 S23          2.0190    -2.5360    -0.2240 ss         1 07R       0.079600
     24 H1          -2.1910     0.2820     0.2480 hn         1 07R       0.321500
     25 H2          -3.6810    -1.9040    -0.7940 h1         1 07R       0.064200
     26 H3          -3.5950    -2.0870     0.9700 h1         1 07R       0.064200
     27 H4          -4.8240     0.0660    -1.8130 ha         1 07R       0.120000
     28 H5          -6.2910     1.5410    -2.5650 ho         1 07R       0.467000
     29 H6          -7.4860     2.3320     0.7200 ha         1 07R       0.132000
     30 H7          -6.5300     1.2090     2.7310 ha         1 07R       0.119000
     31 H8          -4.7250    -0.4820     2.4720 ha         1 07R       0.118000
     32 H9          -0.1590     0.3930     0.1660 hn         1 07R       0.337500
     33 H10          6.2260    -1.0560    -0.2720 ha         1 07R       0.130500
     34 H11          8.1090     0.5540    -0.2000 h4         1 07R       0.017100
     35 H12          5.5400     3.7860     0.2390 h4         1 07R       0.017100
     36 H13          3.5370     2.3190     0.1860 ha         1 07R       0.130500
     37 H14          4.4690    -2.4370    -0.3270 h4         1 07R       0.161000
@<TRIPOS>BOND
     1     1     2 2   
     2     2     3 1   
     3     2    12 1   
     4     3     4 1   
     5     3    24 1   
     6     4     5 1   
     7     4    25 1   
     8     4    26 1   
     9     5     6 ar  
    10     5    11 ar  
    11     6     7 ar  
    12     6    27 1   
    13     7     8 1   
    14     7     9 ar  
    15     8    28 1   
    16     9    10 ar  
    17     9    29 1   
    18    10    11 ar  
    19    10    30 1   
    20    11    31 1   
    21    12    13 1   
    22    12    32 1   
    23    13    14 2   
    24    13    23 1   
    25    14    15 1   
    26    15    16 1   
    27    15    22 2   
    28    16    17 ar  
    29    16    21 ar  
    30    17    18 ar  
    31    17    33 1   
    32    18    19 ar  
    33    18    34 1   
    34    19    20 ar  
    35    20    21 ar  
    36    20    35 1   
    37    21    36 1   
    38    22    23 1   
    39    22    37 1   
@<TRIPOS>SUBSTRUCTURE
     1 07R         1 TEMP              0 ****  ****    0 ROOT
