@<TRIPOS>MOLECULE
07R
   37    39     1     0     0
SMALL
abcg2


@<TRIPOS>ATOM
      1 O01         -0.9090    -2.2420    -0.1570 o          1 07R      -0.622100
      2 C02         -1.0610    -1.0870     0.2150 c          1 07R       0.658100
      3 N03         -2.2430    -0.5420     0.5480 ns         1 07R      -0.508900
      4 C04         -3.4700    -1.3130     0.5620 c3         1 07R       0.161300
      5 C05         -4.6580    -0.3920     0.4770 ca         1 07R      -0.079300
      6 C06         -4.8970     0.3110    -0.7010 ca         1 07R      -0.191000
      7 C07         -5.9820     1.1740    -0.7980 ca         1 07R       0.139100
      8 O08         -6.2550     1.8730    -1.9170 oh         1 07R      -0.531100
      9 C09         -6.8370     1.3370     0.2930 ca         1 07R      -0.133000
     10 C10         -6.5930     0.6360     1.4610 ca         1 07R      -0.076000
     11 C11         -5.5070    -0.2270     1.5620 ca         1 07R      -0.134000
     12 N12          0.0130    -0.2290     0.3080 ns         1 07R      -0.489400
     13 C13          1.3000    -0.5900     0.0280 cc         1 07R       0.558300
     14 N14          2.2760     0.2510     0.1240 nd         1 07R      -0.715000
     15 C15          3.4720    -0.3400    -0.1950 cd         1 07R       0.361500
     16 C16          4.6970     0.4610    -0.1520 ca         1 07R      -0.075500
     17 C17          5.9580    -0.1020    -0.3470 ca         1 07R      -0.144000
     18 C18          7.0750     0.7120    -0.3030 ca         1 07R       0.326900
     19 N19          7.0290     2.0220    -0.0810 nb         1 07R      -0.662000
     20 C20          5.8290     2.5570     0.1110 ca         1 07R       0.326900
     21 C21          4.6470     1.8330     0.0870 ca         1 07R      -0.144000
     22 C22          3.3860    -1.6530    -0.5380 cc         1 07R      -0.303000
     23 S23          1.7540    -2.1900    -0.4690 ss         1 07R       0.079600
     24 H1          -2.2660     0.3750     0.9660 hn         1 07R       0.321500
     25 H2          -3.4650    -1.9920    -0.2910 h1         1 07R       0.064200
     26 H3          -3.5380    -1.9280     1.4640 h1         1 07R       0.064200
     27 H4          -4.2310     0.1810    -1.5490 ha         1 07R       0.120000
     28 H5          -5.6030     1.6820    -2.6010 ho         1 07R       0.467000
     29 H6          -7.6840     2.0080     0.2180 ha         1 07R       0.132000
     30 H7          -7.2580     0.7660     2.3060 ha         1 07R       0.119000
     31 H8          -5.3250    -0.7680     2.4820 ha         1 07R       0.118000
     32 H9          -0.1180     0.7370     0.5770 hn         1 07R       0.337500
     33 H10          6.0850    -1.1620    -0.5260 ha         1 07R       0.130500
     34 H11          8.0590     0.2800    -0.4540 h4         1 07R       0.017100
     35 H12          5.7980     3.6260     0.2920 h4         1 07R       0.017100
     36 H13          3.7040     2.3350     0.2520 ha         1 07R       0.130500
     37 H14          4.1730    -2.3270    -0.8350 h4         1 07R       0.161000
@<TRIPOS>BOND
     1     1     2 2   
     2     2     3 1   
     3     2    12 1   
     4     3     4 1   
     5     3    24 1   
     6     4     5 1   
     7     4    25 1   
     8     4    26 1   
     9     5     6 ar  
    10     5    11 ar  
    11     6     7 ar  
    12     6    27 1   
    13     7     8 1   
    14     7     9 ar  
    15     8    28 1   
    16     9    10 ar  
    17     9    29 1   
    18    10    11 ar  
    19    10    30 1   
    20    11    31 1   
    21    12    13 1   
    22    12    32 1   
    23    13    14 2   
    24    13    23 1   
    25    14    15 1   
    26    15    16 1   
    27    15    22 2   
    28    16    17 ar  
    29    16    21 ar  
    30    17    18 ar  
    31    17    33 1   
    32    18    19 ar  
    33    18    34 1   
    34    19    20 ar  
    35    20    21 ar  
    36    20    35 1   
    37    21    36 1   
    38    22    23 1   
    39    22    37 1   
@<TRIPOS>SUBSTRUCTURE
     1 07R         1 TEMP              0 ****  ****    0 ROOT
