@<TRIPOS>MOLECULE
07S
   60    64     1     0     0
SMALL
bcc


@<TRIPOS>ATOM
      1 C1          10.4200    -1.9380     0.2900 ca         1 07S       0.398200
      2 C2           9.4370    -2.6400    -0.3900 ca         1 07S      -0.242300
      3 C3           8.1660    -2.0960    -0.4700 ca         1 07S      -0.091000
      4 C4           7.9070    -0.8710     0.1420 ca         1 07S      -0.107300
      5 C5           8.9700    -0.2640     0.8190 ca         1 07S       0.412200
      6 N6          10.1900    -0.7710     0.8840 nb         1 07S      -0.663000
      7 C11          6.6020    -0.2310     0.0940 cc         1 07S      -0.112400
      8 S12          5.1360    -1.1310    -0.1580 ss         1 07S      -0.276300
      9 C13          4.2340     0.3620    -0.0530 cc         1 07S       0.731300
     10 N14          4.9610     1.4150     0.1460 nd         1 07S      -0.659000
     11 C15          6.2790     1.0840     0.2250 cd         1 07S       0.393200
     12 N16          2.8820     0.2900    -0.1760 nu         1 07S      -0.846600
     13 C17          1.9400     1.3120    -0.1800 ca         1 07S       0.699200
     14 N18          2.3510     2.5670    -0.1940 nb         1 07S      -0.699000
     15 C19          1.3870     3.4870    -0.2120 ca         1 07S       0.464200
     16 C20          0.0370     3.2290    -0.2140 ca         1 07S      -0.354300
     17 C21         -0.4090     1.8870    -0.1850 ca         1 07S       0.256600
     18 C22          0.6020     0.9180    -0.1870 ca         1 07S      -0.388300
     19 N26         -1.7350     1.5600    -0.1340 nh         1 07S      -0.664000
     20 C27         -2.7470     2.5490    -0.4660 c6         1 07S       0.214800
     21 C28         -4.0910     2.1940     0.1380 c6         1 07S       0.152300
     22 N29         -4.5090     0.8690    -0.2690 n3         1 07S      -0.689600
     23 C30         -3.5290    -0.0880     0.2020 c6         1 07S       0.152300
     24 C31         -2.1610     0.1930    -0.3870 c6         1 07S       0.214800
     25 C40         -5.8390     0.5730     0.2010 c3         1 07S       0.089800
     26 C41         -6.4940    -0.5620    -0.5760 c          1 07S       0.671100
     27 N44         -7.7320    -0.9310    -0.1710 n          1 07S      -0.484800
     28 C45         -8.4880    -1.9200    -0.9220 c6         1 07S       0.059500
     29 C46         -9.2670    -2.8100     0.0290 c6         1 07S       0.116400
     30 O47        -10.0880    -2.0560     0.8920 os         1 07S      -0.394600
     31 C48         -9.3170    -1.1660     1.6640 c6         1 07S       0.116400
     32 C49         -8.5370    -0.1970     0.7920 c6         1 07S       0.059500
     33 O58         -5.9280    -1.1030    -1.5130 o          1 07S      -0.578100
     34 H1          11.4270    -2.3320     0.3640 h4         1 07S       0.020100
     35 H2           9.6650    -3.5890    -0.8550 ha         1 07S       0.142000
     36 H3           7.3910    -2.6200    -1.0170 ha         1 07S       0.139000
     37 H4           8.8130     0.6750     1.3400 h4         1 07S       0.022100
     38 H5           7.0060     1.8720     0.3710 h4         1 07S       0.044100
     39 H6           2.4980    -0.6390    -0.2500 hn         1 07S       0.450800
     40 H7           1.7210     4.5190    -0.2330 h4         1 07S       0.018100
     41 H8          -0.6390     4.0690    -0.2360 ha         1 07S       0.140000
     42 H9           0.3790    -0.1390    -0.1850 ha         1 07S       0.134000
     43 H10         -2.4690     3.5220    -0.0720 h1         1 07S       0.052950
     44 H11         -2.8460     2.6480    -1.5550 h1         1 07S       0.052950
     45 H12         -4.0280     2.2860     1.2360 h1         1 07S       0.044450
     46 H13         -4.8200     2.9300    -0.2080 h1         1 07S       0.044450
     47 H15         -3.4580    -0.0740     1.3040 h1         1 07S       0.044450
     48 H16         -3.8160    -1.0970    -0.0920 h1         1 07S       0.044450
     49 H17         -2.1710    -0.0120    -1.4650 h1         1 07S       0.052950
     50 H18         -1.4690    -0.5070     0.0750 h1         1 07S       0.052950
     51 H19         -5.8540     0.3480     1.2810 h1         1 07S       0.049200
     52 H20         -6.4580     1.4670     0.0730 h1         1 07S       0.049200
     53 H21         -9.1750    -1.4140    -1.6110 h1         1 07S       0.058950
     54 H22         -7.8110    -2.5300    -1.5160 h1         1 07S       0.058950
     55 H23         -9.9130    -3.4780    -0.5410 h1         1 07S       0.054450
     56 H24         -8.5650    -3.4270     0.6070 h1         1 07S       0.054450
     57 H25         -9.9980    -0.6090     2.3080 h1         1 07S       0.054450
     58 H26         -8.6160    -1.7170     2.3060 h1         1 07S       0.054450
     59 H27         -7.9170     0.4170     1.4390 h1         1 07S       0.058950
     60 H28         -9.2280     0.4720     0.2650 h1         1 07S       0.058950
@<TRIPOS>BOND
     1     1     2 ar  
     2     1     6 ar  
     3     1    34 1   
     4     2     3 ar  
     5     2    35 1   
     6     3     4 ar  
     7     3    36 1   
     8     4     5 ar  
     9     4     7 1   
    10     5     6 ar  
    11     5    37 1   
    12     7     8 1   
    13     7    11 2   
    14     8     9 1   
    15     9    10 2   
    16     9    12 1   
    17    10    11 1   
    18    11    38 1   
    19    12    13 1   
    20    12    39 1   
    21    13    14 ar  
    22    13    18 ar  
    23    14    15 ar  
    24    15    16 ar  
    25    15    40 1   
    26    16    17 ar  
    27    16    41 1   
    28    17    18 ar  
    29    17    19 1   
    30    18    42 1   
    31    19    20 1   
    32    19    24 1   
    33    20    21 1   
    34    20    43 1   
    35    20    44 1   
    36    21    22 1   
    37    21    45 1   
    38    21    46 1   
    39    22    23 1   
    40    22    25 1   
    41    23    24 1   
    42    23    47 1   
    43    23    48 1   
    44    24    49 1   
    45    24    50 1   
    46    25    26 1   
    47    25    51 1   
    48    25    52 1   
    49    26    27 1   
    50    26    33 2   
    51    27    28 1   
    52    27    32 1   
    53    28    29 1   
    54    28    53 1   
    55    28    54 1   
    56    29    30 1   
    57    29    55 1   
    58    29    56 1   
    59    30    31 1   
    60    31    32 1   
    61    31    57 1   
    62    31    58 1   
    63    32    59 1   
    64    32    60 1   
@<TRIPOS>SUBSTRUCTURE
     1 07S         1 TEMP              0 ****  ****    0 ROOT
