@<TRIPOS>MOLECULE
07S
   60    64     1     0     0
SMALL
No Charge or Current Charge


@<TRIPOS>ATOM
      1 C1          10.4420    -1.7690     1.0890 ca         1 07S       0.332900
      2 C2           9.7050    -2.3880     0.0670 ca         1 07S      -0.159000
      3 C3           8.4080    -1.9320    -0.2210 ca         1 07S      -0.073000
      4 C4           7.8840    -0.8580     0.5270 ca         1 07S      -0.042000
      5 C5           8.7050    -0.3020     1.5410 ca         1 07S       0.346900
      6 N6           9.9570    -0.7410     1.8210 nb         1 07S      -0.663000
      7 C11          6.5280    -0.3580     0.2530 cc         1 07S      -0.192000
      8 S12          5.2940    -1.1970    -0.6390 ss         1 07S      -0.131400
      9 C13          4.2850     0.2040    -0.3890 cc         1 07S       0.731300
     10 N14          4.7950     1.1910     0.3200 nd         1 07S      -0.659000
     11 C15          6.1000     0.8830     0.6790 cd         1 07S       0.327900
     12 N16          2.9950     0.2380    -0.8130 nu         1 07S      -0.901800
     13 C17          2.0460     1.2190    -0.8800 ca         1 07S       0.633900
     14 N18          2.4790     2.4380    -1.2030 nb         1 07S      -0.699000
     15 C19          1.5610     3.4170    -1.3060 ca         1 07S       0.398900
     16 C20          0.1950     3.2010    -1.1030 ca         1 07S      -0.271000
     17 C21         -0.2450     1.9120    -0.7890 ca         1 07S       0.395000
     18 C22          0.7080     0.9010    -0.6820 ca         1 07S      -0.305000
     19 N26         -1.6090     1.6240    -0.5790 nh         1 07S      -0.802400
     20 C27         -2.5690     2.6870    -0.1410 c6         1 07S       0.214800
     21 C28         -3.8500     2.0960     0.5320 c6         1 07S       0.152300
     22 N29         -4.5320     1.0680    -0.3140 n3         1 07S      -0.689600
     23 C30         -3.5570    -0.0120    -0.6680 c6         1 07S       0.152300
     24 C31         -2.2710     0.5350    -1.3670 c6         1 07S       0.214800
     25 C40         -5.7920     0.5480     0.3150 c3         1 07S       0.089800
     26 C41         -6.7600    -0.3470    -0.5340 c          1 07S       0.604100
     27 N44         -7.8180    -1.0090     0.1420 n          1 07S      -0.417800
     28 C45         -8.7740    -1.8580    -0.6430 c6         1 07S       0.059500
     29 C46         -9.7320    -2.7260     0.2110 c6         1 07S       0.139600
     30 O47        -10.3180    -1.9420     1.2650 os         1 07S      -0.441000
     31 C48         -9.3280    -1.4420     2.1820 c6         1 07S       0.139600
     32 C49         -8.3360    -0.4960     1.4550 c6         1 07S       0.059500
     33 O58         -6.6000    -0.5180    -1.7400 o          1 07S      -0.578100
     34 H1          11.4500    -2.1060     1.3300 h4         1 07S       0.020100
     35 H2          10.1400    -3.2120    -0.4920 ha         1 07S       0.124000
     36 H3           7.8310    -2.4030    -1.0130 ha         1 07S       0.121000
     37 H4           8.3520     0.5190     2.1620 h4         1 07S       0.022100
     38 H5           6.6740     1.6060     1.2450 h4         1 07S       0.044100
     39 H6           2.6340    -0.6870    -0.9990 hn         1 07S       0.506000
     40 H7           1.9330     4.4070    -1.5640 h4         1 07S       0.018100
     41 H8          -0.4970     4.0280    -1.2100 ha         1 07S       0.122000
     42 H9           0.4150    -0.1100    -0.4260 ha         1 07S       0.116000
     43 H10         -2.0870     3.3650     0.5780 h1         1 07S       0.052950
     44 H11         -2.8760     3.2910    -1.0080 h1         1 07S       0.052950
     45 H12         -3.5610     1.6550     1.4970 h1         1 07S       0.044450
     46 H13         -4.5390     2.9250     0.7530 h1         1 07S       0.044450
     47 H15         -3.2520    -0.5540     0.2390 h1         1 07S       0.044450
     48 H16         -4.0210    -0.7510    -1.3370 h1         1 07S       0.044450
     49 H17         -2.5500     0.9180    -2.3600 h1         1 07S       0.052950
     50 H18         -1.5850    -0.3080    -1.5290 h1         1 07S       0.052950
     51 H19         -5.5300    -0.0320     1.2100 h1         1 07S       0.049200
     52 H20         -6.4000     1.3950     0.6570 h1         1 07S       0.049200
     53 H21         -9.3780    -1.1990    -1.2830 h1         1 07S       0.058950
     54 H22         -8.2080    -2.5230    -1.3100 h1         1 07S       0.058950
     55 H23        -10.5310    -3.1360    -0.4230 h1         1 07S       0.054450
     56 H24         -9.1820    -3.5700     0.6510 h1         1 07S       0.054450
     57 H25         -9.8300    -0.9020     2.9980 h1         1 07S       0.054450
     58 H26         -8.7830    -2.2900     2.6210 h1         1 07S       0.054450
     59 H27         -7.5010    -0.3030     2.1420 h1         1 07S       0.058950
     60 H28         -8.8370     0.4660     1.2790 h1         1 07S       0.058950
@<TRIPOS>BOND
     1     1     2 ar  
     2     1     6 ar  
     3     1    34 1   
     4     2     3 ar  
     5     2    35 1   
     6     3     4 ar  
     7     3    36 1   
     8     4     5 ar  
     9     4     7 1   
    10     5     6 ar  
    11     5    37 1   
    12     7     8 1   
    13     7    11 2   
    14     8     9 1   
    15     9    10 2   
    16     9    12 1   
    17    10    11 1   
    18    11    38 1   
    19    12    13 1   
    20    12    39 1   
    21    13    14 ar  
    22    13    18 ar  
    23    14    15 ar  
    24    15    16 ar  
    25    15    40 1   
    26    16    17 ar  
    27    16    41 1   
    28    17    18 ar  
    29    17    19 1   
    30    18    42 1   
    31    19    20 1   
    32    19    24 1   
    33    20    21 1   
    34    20    43 1   
    35    20    44 1   
    36    21    22 1   
    37    21    45 1   
    38    21    46 1   
    39    22    23 1   
    40    22    25 1   
    41    23    24 1   
    42    23    47 1   
    43    23    48 1   
    44    24    49 1   
    45    24    50 1   
    46    25    26 1   
    47    25    51 1   
    48    25    52 1   
    49    26    27 1   
    50    26    33 2   
    51    27    28 1   
    52    27    32 1   
    53    28    29 1   
    54    28    53 1   
    55    28    54 1   
    56    29    30 1   
    57    29    55 1   
    58    29    56 1   
    59    30    31 1   
    60    31    32 1   
    61    31    57 1   
    62    31    58 1   
    63    32    59 1   
    64    32    60 1   
@<TRIPOS>SUBSTRUCTURE
     1 07S         1 TEMP              0 ****  ****    0 ROOT
