@<TRIPOS>MOLECULE
07T
   41    44     1     0     0
SMALL
No Charge or Current Charge


@<TRIPOS>ATOM
      1 OAD          2.0900    -1.8830     1.1030 o          1 07T      -0.550000
      2 CAR          1.4880    -0.8160     1.0480 c          1 07T       0.569600
      3 CAV          0.0530    -0.6940     0.7230 cc         1 07T      -0.176600
      4 NAW         -0.9360    -1.6560     0.4080 na         1 07T       0.072000
      5 CAA         -0.7410    -3.1090     0.3280 c3         1 07T       0.064900
      6 CAT         -2.1320    -0.9690     0.1890 cc         1 07T      -0.123000
      7 CAK         -3.4500    -1.3400    -0.1520 cc         1 07T      -0.035000
      8 CAQ         -4.2350    -0.2040    -0.2300 cd         1 07T      -0.197500
      9 SAY         -5.9790    -0.4020    -0.6780 sx         1 07T       0.281200
     10 CAB         -6.6540     0.3710     0.8660 c3         1 07T      -0.066800
     11 OAE         -6.3080     0.5130    -1.8430 o          1 07T      -0.509000
     12 SAN         -3.3520     1.3280     0.0960 ss         1 07T       0.330000
     13 CAU         -1.9130     0.3360     0.3520 cd         1 07T      -0.201000
     14 CAS         -0.5670     0.5370     0.6840 cd         1 07T      -0.162900
     15 CAJ          0.1500     1.7550     0.9550 cd         1 07T       0.413800
     16 NAM          1.4520     1.7010     1.2540 nc         1 07T      -0.447300
     17 NAX          2.0920     0.4530     1.2950 n          1 07T      -0.135800
     18 CAL          3.5340     0.5070     1.6180 c3         1 07T       0.160300
     19 CAP          4.4330     0.4940     0.3840 ca         1 07T      -0.073300
     20 CAI          5.0970    -0.6870    -0.0070 ca         1 07T      -0.148000
     21 CAH          4.6050     1.6650    -0.3790 ca         1 07T      -0.136000
     22 CAF          5.4300     1.6560    -1.5170 ca         1 07T      -0.077000
     23 CAG          6.0880     0.4740    -1.8970 ca         1 07T      -0.171000
     24 CAO          5.9220    -0.6970    -1.1430 ca         1 07T       0.283000
     25 NAC          6.5650    -1.8470    -1.5170 nv         1 07T      -1.071000
     26 H1           0.0150    -3.3330    -0.4350 h1         1 07T       0.062033
     27 H2          -0.4000    -3.4850     1.2990 h1         1 07T       0.062033
     28 H3          -1.6830    -3.6010     0.0590 h1         1 07T       0.062033
     29 H4          -3.7800    -2.3610    -0.3210 ha         1 07T       0.137000
     30 H5          -6.2730     1.3960     0.9460 h1         1 07T       0.080700
     31 H6          -7.7480     0.3780     0.7990 h1         1 07T       0.080700
     32 H7          -6.3280    -0.2280     1.7250 h1         1 07T       0.080700
     33 H9          -0.2950     2.7420     0.9360 h4         1 07T       0.048800
     34 H10          3.7380     1.4180     2.1950 h1         1 07T       0.072700
     35 H11          3.7890    -0.3390     2.2690 h1         1 07T       0.072700
     36 H12          4.9670    -1.5970     0.5730 ha         1 07T       0.117000
     37 H13          4.0960     2.5830    -0.0910 ha         1 07T       0.121000
     38 H14          5.5590     2.5640    -2.1030 ha         1 07T       0.110000
     39 H15          6.7240     0.4720    -2.7780 ha         1 07T       0.110000
     40 H16          7.2620    -1.8210    -2.2590 hn         1 07T       0.445000
     41 H17          6.5530    -2.6610    -0.9060 hn         1 07T       0.445000
@<TRIPOS>BOND
     1     1     2 2   
     2     2     3 1   
     3     2    17 1   
     4     3     4 1   
     5     3    14 2   
     6     4     5 1   
     7     4     6 1   
     8     5    26 1   
     9     5    27 1   
    10     5    28 1   
    11     6     7 1   
    12     6    13 2   
    13     7     8 2   
    14     7    29 1   
    15     8     9 1   
    16     8    12 1   
    17     9    10 1   
    18     9    11 2   
    19    10    30 1   
    20    10    31 1   
    21    10    32 1   
    22    12    13 1   
    23    13    14 1   
    24    14    15 1   
    25    15    16 2   
    26    15    33 1   
    27    16    17 1   
    28    17    18 1   
    29    18    19 1   
    30    18    34 1   
    31    18    35 1   
    32    19    20 ar  
    33    19    21 ar  
    34    20    24 ar  
    35    20    36 1   
    36    21    22 ar  
    37    21    37 1   
    38    22    23 ar  
    39    22    38 1   
    40    23    24 ar  
    41    23    39 1   
    42    24    25 1   
    43    25    40 1   
    44    25    41 1   
@<TRIPOS>SUBSTRUCTURE
     1 07T         1 TEMP              0 ****  ****    0 ROOT
