@<TRIPOS>MOLECULE
07T
   41    44     1     0     0
SMALL
abcg2


@<TRIPOS>ATOM
      1 OAD          2.0120    -1.6840     0.9390 o          1 07T      -0.550000
      2 CAR          1.4100    -0.6180     0.9330 c          1 07T       0.569600
      3 CAV          0.0190    -0.4360     0.6240 cc         1 07T      -0.176600
      4 NAW         -0.8960    -1.3860     0.2860 na         1 07T       0.072000
      5 CAA         -0.6830    -2.8140     0.1570 c3         1 07T       0.064900
      6 CAT         -2.0840    -0.7450     0.0920 cc         1 07T      -0.123000
      7 CAK         -3.4010    -1.1210    -0.2790 cc         1 07T      -0.035000
      8 CAQ         -4.1890    -0.0140    -0.3090 cd         1 07T      -0.197500
      9 SAY         -5.9120     0.0940    -0.7060 sx         1 07T       0.281200
     10 CAB         -6.5640    -0.2860     0.9350 c3         1 07T      -0.066800
     11 OAE         -6.1500     1.5660    -0.9260 o          1 07T      -0.509000
     12 SAN         -3.3890     1.4830     0.0620 ss         1 07T       0.330000
     13 CAU         -1.9250     0.6180     0.3070 cd         1 07T      -0.201000
     14 CAS         -0.5720     0.8250     0.6450 cd         1 07T      -0.162900
     15 CAJ          0.2410     1.9350     0.9800 cd         1 07T       0.413800
     16 NAM          1.4910     1.7960     1.2640 nc         1 07T      -0.447300
     17 NAX          2.0380     0.5720     1.2460 n          1 07T      -0.135800
     18 CAL          3.4640     0.5320     1.5490 c3         1 07T       0.160300
     19 CAP          4.3140     0.3790     0.3140 ca         1 07T      -0.073300
     20 CAI          5.1590    -0.7130     0.1840 ca         1 07T      -0.148000
     21 CAH          4.2710     1.3470    -0.6880 ca         1 07T      -0.136000
     22 CAF          5.0830     1.2030    -1.8030 ca         1 07T      -0.077000
     23 CAG          5.9370     0.1180    -1.9320 ca         1 07T      -0.171000
     24 CAO          5.9880    -0.8610    -0.9340 ca         1 07T       0.283000
     25 NAC          6.7880    -1.9770    -1.0740 nv         1 07T      -1.071000
     26 H1           0.0700    -3.0260    -0.5970 h1         1 07T       0.062033
     27 H2          -0.3760    -3.2470     1.1050 h1         1 07T       0.062033
     28 H3          -1.6180    -3.2760    -0.1470 h1         1 07T       0.062033
     29 H4          -3.7480    -2.1190    -0.5030 ha         1 07T       0.137000
     30 H5          -6.1490     0.4120     1.6600 h1         1 07T       0.080700
     31 H6          -7.6470    -0.1830     0.8840 h1         1 07T       0.080700
     32 H7          -6.3060    -1.3110     1.1940 h1         1 07T       0.080700
     33 H9          -0.1470     2.9440     1.0160 h4         1 07T       0.048800
     34 H10          3.6910     1.4690     2.0530 h1         1 07T       0.072700
     35 H11          3.6580    -0.2770     2.2530 h1         1 07T       0.072700
     36 H12          5.1770    -1.4680     0.9620 ha         1 07T       0.117000
     37 H13          3.6190     2.2070    -0.5970 ha         1 07T       0.121000
     38 H14          5.0610     1.9510    -2.5850 ha         1 07T       0.110000
     39 H15          6.5670     0.0260    -2.8090 ha         1 07T       0.110000
     40 H16          7.5780    -1.8690    -1.6900 hn         1 07T       0.445000
     41 H17          7.0480    -2.4370    -0.2160 hn         1 07T       0.445000
@<TRIPOS>BOND
     1     1     2 2   
     2     2     3 1   
     3     2    17 1   
     4     3     4 1   
     5     3    14 2   
     6     4     5 1   
     7     4     6 1   
     8     5    26 1   
     9     5    27 1   
    10     5    28 1   
    11     6     7 1   
    12     6    13 2   
    13     7     8 2   
    14     7    29 1   
    15     8     9 1   
    16     8    12 1   
    17     9    10 1   
    18     9    11 2   
    19    10    30 1   
    20    10    31 1   
    21    10    32 1   
    22    12    13 1   
    23    13    14 1   
    24    14    15 1   
    25    15    16 2   
    26    15    33 1   
    27    16    17 1   
    28    17    18 1   
    29    18    19 1   
    30    18    34 1   
    31    18    35 1   
    32    19    20 ar  
    33    19    21 ar  
    34    20    24 ar  
    35    20    36 1   
    36    21    22 ar  
    37    21    37 1   
    38    22    23 ar  
    39    22    38 1   
    40    23    24 ar  
    41    23    39 1   
    42    24    25 1   
    43    25    40 1   
    44    25    41 1   
@<TRIPOS>SUBSTRUCTURE
     1 07T         1 TEMP              0 ****  ****    0 ROOT
