@<TRIPOS>MOLECULE
07U
   41    43     1     0     0
SMALL
No Charge or Current Charge


@<TRIPOS>ATOM
      1 N1           1.8930    -0.3020    -0.2250 nu         1 07U      -0.921100
      2 C6           3.6180    -2.0920    -0.1250 c3         1 07U       0.154200
      3 C10          3.9150    -3.4140     0.6170 c3         1 07U      -0.103600
      4 C20         -1.5850     0.2760    -0.0300 cp         1 07U       0.452500
      5 C21         -1.6850     1.6720     0.2010 ca         1 07U      -0.191000
      6 C24         -0.5640     3.8470     0.5130 ca         1 07U       0.345900
      7 C3           2.0860    -1.7450    -0.0220 c3         1 07U       0.235800
      8 N7           4.4470    -1.0200     0.4910 n8         1 07U      -1.016200
      9 C14          4.0440    -2.2140    -1.6080 c3         1 07U      -0.103600
     10 C18          0.7300     0.4210    -0.0800 ca         1 07U       0.657900
     11 N19         -0.3800    -0.3230    -0.1580 nb         1 07U      -0.787000
     12 C23         -0.5220     2.4550     0.2860 ca         1 07U      -0.036000
     13 N26          0.5510     4.6140     0.5960 nb         1 07U      -0.649000
     14 C27          1.7490     3.9990     0.4520 ca         1 07U       0.307900
     15 C29          1.8840     2.6170     0.2260 ca         1 07U      -0.124000
     16 C31          0.7210     1.8170     0.1400 ca         1 07U      -0.103000
     17 C32         -2.7960    -0.6190    -0.1310 cp         1 07U      -0.101500
     18 C33         -2.7070    -2.0310     0.0130 ca         1 07U      -0.139000
     19 C35         -3.8550    -2.8340    -0.0880 ca         1 07U       0.323900
     20 N37         -5.0880    -2.3330    -0.3250 nb         1 07U      -0.659000
     21 C38         -5.1990    -0.9930    -0.4700 ca         1 07U       0.323900
     22 C40         -4.1020    -0.1170    -0.3840 ca         1 07U      -0.139000
     23 H1           2.7480     0.2160    -0.0320 hn         1 07U       0.518000
     24 H2           3.3350    -4.2390     0.1840 hc         1 07U       0.042533
     25 H3           4.9780    -3.6770     0.5490 hc         1 07U       0.042533
     26 H4           3.6490    -3.3390     1.6790 hc         1 07U       0.042533
     27 H5          -2.6560     2.1410     0.3260 ha         1 07U       0.128000
     28 H6          -1.5150     4.3640     0.6310 h4         1 07U       0.022100
     29 H7           1.7250    -2.0160     0.9800 h1         1 07U       0.052700
     30 H8           1.5120    -2.3320    -0.7540 h1         1 07U       0.052700
     31 H9           4.8190    -1.3630     1.3840 hn         1 07U       0.401500
     32 H10          5.2920    -0.8910    -0.0790 hn         1 07U       0.401500
     33 H12          3.8640    -1.2770    -2.1500 hc         1 07U       0.042533
     34 H13          5.1100    -2.4590    -1.6960 hc         1 07U       0.042533
     35 H14          3.4760    -3.0060    -2.1100 hc         1 07U       0.042533
     36 H15          2.6300     4.6360     0.5220 h4         1 07U       0.021100
     37 H16          2.8790     2.1960     0.1200 ha         1 07U       0.122000
     38 H17         -1.7530    -2.5120     0.2090 ha         1 07U       0.131000
     39 H18         -3.7860    -3.9150     0.0260 h4         1 07U       0.017100
     40 H19         -6.1990    -0.6090    -0.6670 h4         1 07U       0.017100
     41 H20         -4.2820     0.9430    -0.5310 ha         1 07U       0.131000
@<TRIPOS>BOND
     1     1     7 1   
     2     1    10 1   
     3     1    23 1   
     4     2     3 1   
     5     2     7 1   
     6     2     8 1   
     7     2     9 1   
     8     3    24 1   
     9     3    25 1   
    10     3    26 1   
    11     4     5 ar  
    12     4    11 ar  
    13     4    17 1   
    14     5    12 ar  
    15     5    27 1   
    16     6    12 ar  
    17     6    13 ar  
    18     6    28 1   
    19     7    29 1   
    20     7    30 1   
    21     8    31 1   
    22     8    32 1   
    23     9    33 1   
    24     9    34 1   
    25     9    35 1   
    26    10    11 ar  
    27    10    16 ar  
    28    12    16 ar  
    29    13    14 ar  
    30    14    15 ar  
    31    14    36 1   
    32    15    16 ar  
    33    15    37 1   
    34    17    18 ar  
    35    17    22 ar  
    36    18    19 ar  
    37    18    38 1   
    38    19    20 ar  
    39    19    39 1   
    40    20    21 ar  
    41    21    22 ar  
    42    21    40 1   
    43    22    41 1   
@<TRIPOS>SUBSTRUCTURE
     1 07U         1 TEMP              0 ****  ****    0 ROOT
