@<TRIPOS>MOLECULE
07U
   41    43     1     0     0
SMALL
bcc


@<TRIPOS>ATOM
      1 N1           1.9630    -0.2700     0.1760 nu         1 07U      -0.865900
      2 C6           3.5430    -2.0990    -0.0850 c3         1 07U       0.154200
      3 C10          3.6940    -3.6050     0.1370 c3         1 07U      -0.103600
      4 C20         -1.5220     0.2800     0.0060 cp         1 07U       0.517800
      5 C21         -1.6690     1.6400     0.0340 ca         1 07U      -0.274300
      6 C24         -0.5440     3.8480     0.1270 ca         1 07U       0.411200
      7 C3           2.0930    -1.7040     0.2210 c3         1 07U       0.235800
      8 N7           4.4030    -1.3060     0.7960 n8         1 07U      -0.905800
      9 C14          3.8960    -1.7500    -1.5290 c3         1 07U      -0.103600
     10 C18          0.7880     0.3750     0.1380 ca         1 07U       0.723200
     11 N19         -0.3170    -0.3300     0.0690 nb         1 07U      -0.787000
     12 C23         -0.5010     2.4350     0.1060 ca         1 07U      -0.101300
     13 N26          0.5190     4.6070     0.1790 nb         1 07U      -0.649000
     14 C27          1.7250     4.0100     0.2140 ca         1 07U       0.373200
     15 C29          1.8940     2.6480     0.2010 ca         1 07U      -0.207300
     16 C31          0.7620     1.8220     0.1520 ca         1 07U      -0.168300
     17 C32         -2.6840    -0.6330    -0.0700 cp         1 07U      -0.101500
     18 C33         -2.5290    -1.9990     0.1550 ca         1 07U      -0.222300
     19 C35         -3.6370    -2.8280     0.0840 ca         1 07U       0.389200
     20 N37         -4.8640    -2.4010    -0.1950 nb         1 07U      -0.659000
     21 C38         -5.0110    -1.0990    -0.4170 ca         1 07U       0.389200
     22 C40         -3.9710    -0.1860    -0.3680 ca         1 07U      -0.222300
     23 H1           2.8080     0.2210     0.4310 hn         1 07U       0.462800
     24 H2           3.0230    -4.1780    -0.5060 hc         1 07U       0.042533
     25 H3           4.7160    -3.9230    -0.0810 hc         1 07U       0.042533
     26 H4           3.4740    -3.8730     1.1730 hc         1 07U       0.042533
     27 H5          -2.6360     2.1210     0.0100 ha         1 07U       0.146000
     28 H6          -1.5080     4.3460     0.0960 h4         1 07U       0.022100
     29 H7           1.8050    -2.0930     1.2070 h1         1 07U       0.052700
     30 H8           1.4190    -2.1610    -0.5040 h1         1 07U       0.052700
     31 H9           4.2920    -1.6160     1.7560 hn         1 07U       0.346300
     32 H10          5.3760    -1.4700     0.5630 hn         1 07U       0.346300
     33 H12          3.7650    -0.6870    -1.7290 hc         1 07U       0.042533
     34 H13          4.9370    -2.0050    -1.7410 hc         1 07U       0.042533
     35 H14          3.2710    -2.3070    -2.2290 hc         1 07U       0.042533
     36 H15          2.5850     4.6670     0.2530 h4         1 07U       0.021100
     37 H16          2.9000     2.2520     0.2260 ha         1 07U       0.140000
     38 H17         -1.5580    -2.4120     0.3870 ha         1 07U       0.149000
     39 H18         -3.5240    -3.8920     0.2630 h4         1 07U       0.017100
     40 H19         -6.0130    -0.7560    -0.6490 h4         1 07U       0.017100
     41 H20         -4.1810     0.8530    -0.5760 ha         1 07U       0.149000
@<TRIPOS>BOND
     1     1     7 1   
     2     1    10 1   
     3     1    23 1   
     4     2     3 1   
     5     2     7 1   
     6     2     8 1   
     7     2     9 1   
     8     3    24 1   
     9     3    25 1   
    10     3    26 1   
    11     4     5 ar  
    12     4    11 ar  
    13     4    17 1   
    14     5    12 ar  
    15     5    27 1   
    16     6    12 ar  
    17     6    13 ar  
    18     6    28 1   
    19     7    29 1   
    20     7    30 1   
    21     8    31 1   
    22     8    32 1   
    23     9    33 1   
    24     9    34 1   
    25     9    35 1   
    26    10    11 ar  
    27    10    16 ar  
    28    12    16 ar  
    29    13    14 ar  
    30    14    15 ar  
    31    14    36 1   
    32    15    16 ar  
    33    15    37 1   
    34    17    18 ar  
    35    17    22 ar  
    36    18    19 ar  
    37    18    38 1   
    38    19    20 ar  
    39    19    39 1   
    40    20    21 ar  
    41    21    22 ar  
    42    21    40 1   
    43    22    41 1   
@<TRIPOS>SUBSTRUCTURE
     1 07U         1 TEMP              0 ****  ****    0 ROOT
