@<TRIPOS>MOLECULE
07V
   25    25     1     0     0
SMALL
No Charge or Current Charge


@<TRIPOS>ATOM
      1 CAG          0.0650    -0.9580     0.4430 c6         1 07V      -0.173400
      2 CAJ         -1.3760    -0.9030    -0.0600 c          1 07V       0.570300
      3 OAD         -2.0200    -1.9170    -0.2970 o          1 07V      -0.526100
      4 CAI         -1.9570     0.4780    -0.1050 ce         1 07V      -0.201400
      5 CAC         -3.4480     0.6280     0.1580 c3         1 07V      -0.040900
      6 CAE         -1.1460     1.5510    -0.2760 c2         1 07V      -0.161200
      7 CAF          0.3790     1.4550    -0.3700 c6         1 07V      -0.050200
      8 CAK          0.9240    -0.0050    -0.4300 c6         1 07V      -0.016500
      9 CAH          2.4240    -0.0740    -0.1130 c2         1 07V      -0.115400
     10 CAB          2.8280     0.0310     1.3510 c3         1 07V      -0.056900
     11 CAA          3.3290    -0.2140    -1.0940 c2         1 07V      -0.313000
     12 H1           0.0640    -0.5450     1.4600 hc         1 07V       0.071700
     13 H2           0.4340    -1.9910     0.4550 hc         1 07V       0.071700
     14 H3          -3.8050    -0.1100     0.8870 hc         1 07V       0.046033
     15 H4          -3.6920     1.6200     0.5570 hc         1 07V       0.046033
     16 H5          -4.0260     0.4910    -0.7640 hc         1 07V       0.046033
     17 H6          -1.5560     2.5640    -0.2810 ha         1 07V       0.176000
     18 H7           0.7320     2.0160    -1.2470 hc         1 07V       0.058200
     19 H8           0.7990     1.9720     0.5020 hc         1 07V       0.058200
     20 H9           0.7910    -0.3390    -1.4700 hc         1 07V       0.057700
     21 H10          2.4560    -0.8210     1.9320 hc         1 07V       0.040367
     22 H11          3.9180     0.0450     1.4660 hc         1 07V       0.040367
     23 H12          2.4430     0.9470     1.8130 hc         1 07V       0.040367
     24 H13          3.0400    -0.2840    -2.1430 ha         1 07V       0.165000
     25 H14          4.3990    -0.2620    -0.8850 ha         1 07V       0.165000
@<TRIPOS>BOND
     1     1     2 1   
     2     1     8 1   
     3     1    12 1   
     4     1    13 1   
     5     2     3 2   
     6     2     4 1   
     7     4     5 1   
     8     4     6 2   
     9     5    14 1   
    10     5    15 1   
    11     5    16 1   
    12     6     7 1   
    13     6    17 1   
    14     7     8 1   
    15     7    18 1   
    16     7    19 1   
    17     8     9 1   
    18     8    20 1   
    19     9    10 1   
    20     9    11 2   
    21    10    21 1   
    22    10    22 1   
    23    10    23 1   
    24    11    24 1   
    25    11    25 1   
@<TRIPOS>SUBSTRUCTURE
     1 07V         1 TEMP              0 ****  ****    0 ROOT
