@<TRIPOS>MOLECULE
07V
   25    25     1     0     0
SMALL
abcg2


@<TRIPOS>ATOM
      1 CAG          0.1050    -0.9400     0.4920 c6         1 07V      -0.173400
      2 CAJ         -1.3810    -0.8450     0.2490 c          1 07V       0.570300
      3 OAD         -2.1040    -1.8210     0.3330 o          1 07V      -0.526100
      4 CAI         -1.9370     0.4920    -0.0330 ce         1 07V      -0.201400
      5 CAC         -3.4250     0.6100    -0.1530 c3         1 07V      -0.040900
      6 CAE         -1.1090     1.5410    -0.1460 c2         1 07V      -0.161200
      7 CAF          0.3790     1.4650    -0.0770 c6         1 07V      -0.050200
      8 CAK          0.8920     0.0530    -0.3600 c6         1 07V      -0.016500
      9 CAH          2.3830    -0.0550    -0.1600 c2         1 07V      -0.115400
     10 CAB          2.9000    -0.0370     1.2490 c3         1 07V      -0.056900
     11 CAA          3.2010    -0.1520    -1.2060 c2         1 07V      -0.313000
     12 H1           0.2640    -0.7290     1.5570 hc         1 07V       0.071700
     13 H2           0.4320    -1.9670     0.3180 hc         1 07V       0.071700
     14 H3          -3.9280     0.2960     0.7630 hc         1 07V       0.046033
     15 H4          -3.7180     1.6370    -0.3630 hc         1 07V       0.046033
     16 H5          -3.8100    -0.0180    -0.9580 hc         1 07V       0.046033
     17 H6          -1.5350     2.5260    -0.3060 ha         1 07V       0.176000
     18 H7           0.8110     2.1740    -0.7870 hc         1 07V       0.058200
     19 H8           0.7020     1.8070     0.9150 hc         1 07V       0.058200
     20 H9           0.6800    -0.1640    -1.4130 hc         1 07V       0.057700
     21 H10          2.6060    -0.9410     1.7880 hc         1 07V       0.040367
     22 H11          3.9870     0.0230     1.2740 hc         1 07V       0.040367
     23 H12          2.5020     0.8060     1.8180 hc         1 07V       0.040367
     24 H13          2.8250    -0.1800    -2.2210 ha         1 07V       0.165000
     25 H14          4.2770    -0.2050    -1.0840 ha         1 07V       0.165000
@<TRIPOS>BOND
     1     1     2 1   
     2     1     8 1   
     3     1    12 1   
     4     1    13 1   
     5     2     3 2   
     6     2     4 1   
     7     4     5 1   
     8     4     6 2   
     9     5    14 1   
    10     5    15 1   
    11     5    16 1   
    12     6     7 1   
    13     6    17 1   
    14     7     8 1   
    15     7    18 1   
    16     7    19 1   
    17     8     9 1   
    18     8    20 1   
    19     9    10 1   
    20     9    11 2   
    21    10    21 1   
    22    10    22 1   
    23    10    23 1   
    24    11    24 1   
    25    11    25 1   
@<TRIPOS>SUBSTRUCTURE
     1 07V         1 TEMP              0 ****  ****    0 ROOT
