@<TRIPOS>MOLECULE
07Y
   32    33     1     0     0
SMALL
bcc


@<TRIPOS>ATOM
      1 C1          20.8710    -8.0790    28.0700 c5         1 07Y       0.309900
      2 C2          22.1570    -8.1780    27.2480 c5         1 07Y       0.091100
      3 O2          23.2680    -7.5100    27.7580 oh         1 07Y      -0.564800
      4 C3          21.6980    -7.5780    25.9250 c5         1 07Y       0.122100
      5 C4          20.2840    -8.1430    25.8210 c5         1 07Y       0.144100
      6 O4          19.8440    -8.3300    27.1710 os         1 07Y      -0.410600
      7 C5          19.2940    -7.3230    25.0280 c3         1 07Y       0.137400
      8 O5          19.2400    -6.0060    25.5170 oh         1 07Y      -0.596800
      9 C18         18.7270    -5.6790    28.9980 ca         1 07Y      -0.162000
     10 C19         17.7030    -5.3420    29.8630 ca         1 07Y      -0.051500
     11 C20         17.7100    -5.8570    31.1520 ca         1 07Y      -0.194200
     12 N11         16.6400    -5.4990    32.0640 no         1 07Y       0.317200
     13 O18         15.8000    -4.7200    31.6770 o          1 07Y      -0.213000
     14 O17         16.6410    -5.9930    33.1680 o          1 07Y      -0.213000
     15 C21         18.7220    -6.7020    31.5890 ca         1 07Y      -0.051500
     16 C22         19.7490    -7.0240    30.7230 ca         1 07Y      -0.162000
     17 C17         19.7590    -6.5070    29.4290 ca         1 07Y       0.170100
     18 O1          20.7870    -6.7630    28.5890 os         1 07Y      -0.344900
     19 O3          22.4450    -7.9590    24.8040 oh         1 07Y      -0.588800
     20 H1          20.8050    -8.8020    28.8900 h2         1 07Y       0.073700
     21 H2          22.3580    -9.2470    27.0900 h1         1 07Y       0.056700
     22 H3          23.6460    -8.0280    28.4750 ho         1 07Y       0.414000
     23 H4          21.6680    -6.4860    26.0260 h1         1 07Y       0.088700
     24 H5          20.3400    -9.1270    25.3380 h1         1 07Y       0.071700
     25 H6          19.6170    -7.3580    23.9800 h1         1 07Y       0.036200
     26 H7          18.3150    -7.8170    25.0730 h1         1 07Y       0.036200
     27 H8          18.5870    -5.5200    25.0050 ho         1 07Y       0.408000
     28 H10         16.9090    -4.6940    29.5250 ha         1 07Y       0.167500
     29 H11         18.7260    -7.0980    32.5940 ha         1 07Y       0.167500
     30 H12         20.5550    -7.6610    31.0620 ha         1 07Y       0.158500
     31 H13         23.2610    -7.4500    24.7960 ho         1 07Y       0.424000
     32 H9          18.7330    -5.3020    27.9850 ha         1 07Y       0.158500
@<TRIPOS>BOND
     1     1     2 1   
     2     1     6 1   
     3     1    18 1   
     4     1    20 1   
     5     2     3 1   
     6     2     4 1   
     7     2    21 1   
     8     3    22 1   
     9     4     5 1   
    10     4    19 1   
    11     4    23 1   
    12     5     6 1   
    13     5     7 1   
    14     5    24 1   
    15     7     8 1   
    16     7    25 1   
    17     7    26 1   
    18     8    27 1   
    19     9    10 ar  
    20     9    17 ar  
    21     9    32 1   
    22    10    11 ar  
    23    10    28 1   
    24    11    12 1   
    25    11    15 ar  
    26    12    13 1   
    27    12    14 1   
    28    15    16 ar  
    29    15    29 1   
    30    16    17 ar  
    31    16    30 1   
    32    17    18 1   
    33    19    31 1   
@<TRIPOS>SUBSTRUCTURE
     1 07Y         1 TEMP              0 ****  ****    0 ROOT
