@<TRIPOS>MOLECULE
07Y
   32    33     1     0     0
SMALL
No Charge or Current Charge


@<TRIPOS>ATOM
      1 C1          21.0550    -8.0160    28.1700 c5         1 07Y       0.356300
      2 C2          22.2650    -8.1830    27.1820 c5         1 07Y       0.114300
      3 O2          23.5250    -7.6070    27.5960 oh         1 07Y      -0.687000
      4 C3          21.6550    -7.5030    25.9250 c5         1 07Y       0.145300
      5 C4          20.2460    -8.1830    25.9500 c5         1 07Y       0.167300
      6 O4          19.9030    -8.3570    27.3590 os         1 07Y      -0.457000
      7 C5          19.1140    -7.4530    25.1680 c3         1 07Y       0.160600
      8 O5          18.9860    -6.0650    25.5380 oh         1 07Y      -0.719000
      9 C18         18.9690    -5.3860    29.0400 ca         1 07Y      -0.144000
     10 C19         17.8660    -5.1140    29.8690 ca         1 07Y      -0.033500
     11 C20         17.6690    -5.8560    31.0570 ca         1 07Y      -0.194200
     12 N11         16.4960    -5.5700    31.9450 no         1 07Y       0.697200
     13 O18         15.7100    -4.6750    31.6080 o          1 07Y      -0.403000
     14 O17         16.3640    -6.2440    32.9760 o          1 07Y      -0.403000
     15 C21         18.6000    -6.8650    31.4000 ca         1 07Y      -0.033500
     16 C22         19.6990    -7.1310    30.5640 ca         1 07Y      -0.144000
     17 C17         19.8750    -6.4050    29.3670 ca         1 07Y       0.170100
     18 O1          20.9550    -6.6090    28.5310 os         1 07Y      -0.368100
     19 O3          22.4230    -7.7750    24.7390 oh         1 07Y      -0.711000
     20 H1          21.1460    -8.6680    29.0470 h2         1 07Y       0.073700
     21 H2          22.4110    -9.2560    26.9890 h1         1 07Y       0.056700
     22 H3          23.7550    -7.9900    28.4760 ho         1 07Y       0.513000
     23 H4          21.5620    -6.4180    26.0790 h1         1 07Y       0.088700
     24 H5          20.3290    -9.1900    25.5190 h1         1 07Y       0.071700
     25 H6          19.3350    -7.5340    24.0950 h1         1 07Y       0.036200
     26 H7          18.1700    -7.9860    25.3470 h1         1 07Y       0.036200
     27 H8          18.2270    -5.7000    25.0260 ho         1 07Y       0.507000
     28 H10         17.1740    -4.3240    29.5810 ha         1 07Y       0.149500
     29 H11         18.4850    -7.4420    32.3160 ha         1 07Y       0.149500
     30 H12         20.4160    -7.8890    30.8670 ha         1 07Y       0.140500
     31 H13         23.3610    -7.5760    24.9760 ho         1 07Y       0.523000
     32 H9          19.1170    -4.8110    28.1300 ha         1 07Y       0.140500
@<TRIPOS>BOND
     1     1     2 1   
     2     1     6 1   
     3     1    18 1   
     4     1    20 1   
     5     2     3 1   
     6     2     4 1   
     7     2    21 1   
     8     3    22 1   
     9     4     5 1   
    10     4    19 1   
    11     4    23 1   
    12     5     6 1   
    13     5     7 1   
    14     5    24 1   
    15     7     8 1   
    16     7    25 1   
    17     7    26 1   
    18     8    27 1   
    19     9    10 ar  
    20     9    17 ar  
    21     9    32 1   
    22    10    11 ar  
    23    10    28 1   
    24    11    12 1   
    25    11    15 ar  
    26    12    13 1   
    27    12    14 1   
    28    15    16 ar  
    29    15    29 1   
    30    16    17 ar  
    31    16    30 1   
    32    17    18 1   
    33    19    31 1   
@<TRIPOS>SUBSTRUCTURE
     1 07Y         1 TEMP              0 ****  ****    0 ROOT
