@<TRIPOS>MOLECULE
07Z
   35    37     1     0     0
SMALL
abcg2


@<TRIPOS>ATOM
      1 C1          -2.5400    -0.6810     0.1380 ca         1 07Z       0.231000
      2 N2          -1.1700    -0.9560     0.2050 nu         1 07Z      -0.888900
      3 C3          -0.1230    -0.1240     0.1070 cc         1 07Z       0.798300
      4 N4          -0.1960     1.1680    -0.0450 nd         1 07Z      -0.806000
      5 C5           1.0370     1.7260    -0.1060 cd         1 07Z       0.708900
      6 C6           2.1200     0.8360    -0.0230 cc         1 07Z      -0.485600
      7 S7           1.4830    -0.7890     0.1810 ss         1 07Z      -0.149400
      8 N8           1.1370     3.0460    -0.2320 nv         1 07Z      -1.049900
      9 C9           3.4930     1.1880    -0.0480 c          1 07Z       0.651300
     10 C10          4.5110     0.0960    -0.0440 ca         1 07Z      -0.190600
     11 C11          4.4650    -0.9770    -0.9270 ca         1 07Z      -0.045000
     12 C12          5.4860    -1.9150    -0.8940 ca         1 07Z      -0.176000
     13 C13          6.5080    -1.7480     0.0260 ca         1 07Z       0.337900
     14 N14          6.5660    -0.7250     0.8730 nb         1 07Z      -0.680000
     15 C15          5.5970     0.1770     0.8250 ca         1 07Z       0.372900
     16 O16          3.8800     2.3610    -0.0630 o          1 07Z      -0.613100
     17 C17         -3.0840     0.5800    -0.1070 ca         1 07Z      -0.160500
     18 C18         -4.4630     0.7280    -0.1640 ca         1 07Z      -0.070000
     19 C19         -5.3320    -0.3420     0.0160 ca         1 07Z      -0.133600
     20 C20         -4.7710    -1.5940     0.2620 ca         1 07Z      -0.070000
     21 C21         -3.4010    -1.7660     0.3230 ca         1 07Z      -0.160500
     22 C22         -6.8390    -0.1540    -0.0540 c          1 07Z       0.712600
     23 O23         -7.2480     1.0020    -0.2780 o          1 07Z      -0.716500
     24 O24         -7.5370    -1.1730     0.1170 o          1 07Z      -0.716500
     25 HN2         -0.9490    -1.9310     0.3470 hn         1 07Z       0.499000
     26 HN8          0.3100     3.6000    -0.3690 hn         1 07Z       0.514000
     27 HN8A         2.0430     3.4760    -0.3080 hn         1 07Z       0.514000
     28 H11          3.6650    -1.0710    -1.6500 ha         1 07Z       0.132000
     29 H12          5.4920    -2.7560    -1.5730 ha         1 07Z       0.120000
     30 H13          7.3170    -2.4670     0.0790 h4         1 07Z       0.011100
     31 H15          5.6720     1.0050     1.5220 h4         1 07Z       0.030100
     32 H17         -2.4450     1.4360    -0.2500 ha         1 07Z       0.106000
     33 H18         -4.8700     1.7110    -0.3580 ha         1 07Z       0.132500
     34 H20         -5.4160    -2.4500     0.4090 ha         1 07Z       0.132500
     35 H21         -2.9910    -2.7510     0.5170 ha         1 07Z       0.106000
@<TRIPOS>BOND
     1     1     2 1   
     2     1    17 ar  
     3     1    21 ar  
     4     2     3 1   
     5     2    25 1   
     6     3     4 2   
     7     3     7 1   
     8     4     5 1   
     9     5     6 2   
    10     5     8 1   
    11     6     7 1   
    12     6     9 1   
    13     8    26 1   
    14     8    27 1   
    15     9    10 1   
    16     9    16 2   
    17    10    11 ar  
    18    10    15 ar  
    19    11    12 ar  
    20    11    28 1   
    21    12    13 ar  
    22    12    29 1   
    23    13    14 ar  
    24    13    30 1   
    25    14    15 ar  
    26    15    31 1   
    27    17    18 ar  
    28    17    32 1   
    29    18    19 ar  
    30    18    33 1   
    31    19    20 ar  
    32    19    22 1   
    33    20    21 ar  
    34    20    34 1   
    35    21    35 1   
    36    22    23 1   
    37    22    24 1   
@<TRIPOS>SUBSTRUCTURE
     1 07Z         1 TEMP              0 ****  ****    0 ROOT
