@<TRIPOS>MOLECULE
07Z
   35    37     1     0     0
SMALL
No Charge or Current Charge


@<TRIPOS>ATOM
      1 C1          -2.5290    -0.7730     0.2170 ca         1 07Z       0.231000
      2 N2          -1.1840    -1.0380     0.4670 nu         1 07Z      -0.888900
      3 C3          -0.0690    -0.2600     0.5260 cc         1 07Z       0.798300
      4 N4          -0.1470     1.0350     0.3370 nd         1 07Z      -0.806000
      5 C5           1.0900     1.5620     0.4770 cd         1 07Z       0.708900
      6 C6           2.1130     0.7230     0.7930 cc         1 07Z      -0.485600
      7 S7           1.5050    -0.9120     0.9110 ss         1 07Z      -0.149400
      8 N8           1.1400     2.8570     0.2470 nv         1 07Z      -1.049900
      9 C9           3.5300     1.1180     0.7340 c          1 07Z       0.651300
     10 C10          4.5090     0.1490     0.1430 ca         1 07Z      -0.190600
     11 C11          4.1760    -0.7670    -0.8790 ca         1 07Z      -0.045000
     12 C12          5.1840    -1.6100    -1.3710 ca         1 07Z      -0.176000
     13 C13          6.4810    -1.5100    -0.8440 ca         1 07Z       0.337900
     14 N14          6.8140    -0.6210     0.1180 nb         1 07Z      -0.680000
     15 C15          5.8390     0.1950     0.5910 ca         1 07Z       0.372900
     16 O16          3.8860     2.2570     1.0060 o          1 07Z      -0.613100
     17 C17         -2.9340     0.1470    -0.7650 ca         1 07Z      -0.160500
     18 C18         -4.2990     0.3770    -1.0110 ca         1 07Z      -0.070000
     19 C19         -5.2910    -0.3200    -0.2820 ca         1 07Z      -0.133600
     20 C20         -4.8740    -1.2540     0.6950 ca         1 07Z      -0.070000
     21 C21         -3.5060    -1.4790     0.9350 ca         1 07Z      -0.160500
     22 C22         -6.7680    -0.0740    -0.5450 c          1 07Z       0.712600
     23 O23         -7.0830     0.7400    -1.4010 o          1 07Z      -0.716500
     24 O24         -7.5900    -0.7000     0.1090 o          1 07Z      -0.716500
     25 HN2         -1.0010    -1.9440     0.8860 hn         1 07Z       0.499000
     26 HN8          0.3790     3.2340    -0.3010 hn         1 07Z       0.514000
     27 HN8A         2.0600     3.2650     0.1280 hn         1 07Z       0.514000
     28 H11          3.1750    -0.8120    -1.3030 ha         1 07Z       0.132000
     29 H12          4.9710    -2.3300    -2.1560 ha         1 07Z       0.120000
     30 H13          7.2810    -2.1520    -1.2100 h4         1 07Z       0.011100
     31 H15          6.1440     0.8970     1.3670 h4         1 07Z       0.030100
     32 H17         -2.1930     0.6830    -1.3510 ha         1 07Z       0.106000
     33 H18         -4.5830     1.0970    -1.7760 ha         1 07Z       0.132500
     34 H20         -5.6090    -1.8120     1.2710 ha         1 07Z       0.132500
     35 H21         -3.2110    -2.2030     1.6890 ha         1 07Z       0.106000
@<TRIPOS>BOND
     1     1     2 1   
     2     1    17 ar  
     3     1    21 ar  
     4     2     3 1   
     5     2    25 1   
     6     3     4 2   
     7     3     7 1   
     8     4     5 1   
     9     5     6 2   
    10     5     8 1   
    11     6     7 1   
    12     6     9 1   
    13     8    26 1   
    14     8    27 1   
    15     9    10 1   
    16     9    16 2   
    17    10    11 ar  
    18    10    15 ar  
    19    11    12 ar  
    20    11    28 1   
    21    12    13 ar  
    22    12    29 1   
    23    13    14 ar  
    24    13    30 1   
    25    14    15 ar  
    26    15    31 1   
    27    17    18 ar  
    28    17    32 1   
    29    18    19 ar  
    30    18    33 1   
    31    19    20 ar  
    32    19    22 1   
    33    20    21 ar  
    34    20    34 1   
    35    21    35 1   
    36    22    23 1   
    37    22    24 1   
@<TRIPOS>SUBSTRUCTURE
     1 07Z         1 TEMP              0 ****  ****    0 ROOT
