@<TRIPOS>MOLECULE
083
   45    48     1     0     0
SMALL
No Charge or Current Charge


@<TRIPOS>ATOM
      1 N2          15.0890    21.4770    18.4590 nv         1 083      -1.060200
      2 C7          15.3790    20.1490    18.4890 ce         1 083       0.648200
      3 C6          16.1130    19.4990    17.3330 ca         1 083       0.092700
      4 N1          16.5310    18.2180    17.4990 nb         1 083      -0.167000
      5 C4          17.1770    17.6350    16.4690 ca         1 083       0.131800
      6 C5          17.6390    16.2030    16.6660 c3         1 083      -0.151400
      7 C3          17.4140    18.3290    15.2710 ca         1 083      -0.214000
      8 N6          16.3020    20.2370    16.2080 nb         1 083      -0.167000
      9 C2          16.9520    19.6520    15.1820 ca         1 083       0.131800
     10 C1          17.1530    20.4830    13.9290 c3         1 083      -0.151400
     11 N3          15.2260    19.6360    19.6640 nf         1 083      -0.769700
     12 C8          13.9890    19.6380    20.3270 ca         1 083       0.623000
     13 C21         12.9770    18.6760    20.0980 ca         1 083      -0.073000
     14 C20         13.1220    17.6130    19.1800 ca         1 083      -0.051000
     15 C19         12.0730    16.6930    18.9960 ca         1 083      -0.132000
     16 C18         10.8800    16.8270    19.7260 ca         1 083      -0.089000
     17 C17         10.7330    17.8800    20.6440 ca         1 083      -0.115000
     18 C16         11.7800    18.8010    20.8300 ca         1 083      -0.011000
     19 C15         11.6620    19.8590    21.7460 ca         1 083      -0.125000
     20 C9          12.7310    20.7790    21.9280 cp         1 083       0.302000
     21 N4          13.8800    20.6480    21.2080 nb         1 083      -0.797000
     22 C10         12.6300    21.9340    22.9240 cp         1 083       0.303000
     23 N5          11.4680    22.0810    23.6200 nb         1 083      -0.672000
     24 C14         11.3470    23.0950    24.5090 ca         1 083       0.338900
     25 C13         12.3750    24.0170    24.7550 ca         1 083      -0.164000
     26 C12         13.5840    23.8920    24.0550 ca         1 083      -0.080000
     27 C11         13.7080    22.8400    23.1330 ca         1 083      -0.134000
     28 H21N        14.9500    21.8420    19.3950 hn         1 083       0.524000
     29 H22N        15.6710    22.0390    17.8490 hn         1 083       0.524000
     30 H51C        16.9060    15.6220    17.2390 hc         1 083       0.059700
     31 H52C        17.7840    15.6950    15.7050 hc         1 083       0.059700
     32 H53C        18.5910    16.1730    17.2080 hc         1 083       0.059700
     33 H3          17.9360    17.8580    14.4420 ha         1 083       0.134000
     34 H11C        17.4060    21.5220    14.1760 hc         1 083       0.059700
     35 H12C        17.9660    20.0840    13.3110 hc         1 083       0.059700
     36 H13C        16.2430    20.4940    13.3190 hc         1 083       0.059700
     37 H20         14.0400    17.4880    18.6110 ha         1 083       0.144000
     38 H19         12.1880    15.8750    18.2880 ha         1 083       0.113000
     39 H18         10.0710    16.1140    19.5820 ha         1 083       0.111000
     40 H17          9.8080    17.9770    21.2090 ha         1 083       0.116000
     41 H15         10.7470    19.9690    22.3210 ha         1 083       0.141000
     42 H11         14.6360    22.7230    22.5810 ha         1 083       0.130000
     43 H14         10.3970    23.1670    25.0370 h4         1 083       0.019100
     44 H13         12.2300    24.8140    25.4790 ha         1 083       0.123000
     45 H12         14.4030    24.5890    24.2220 ha         1 083       0.117000
@<TRIPOS>BOND
     1     1     2 1   
     2     1    28 1   
     3     1    29 1   
     4     2     3 1   
     5     2    11 2   
     6     3     4 ar  
     7     3     8 ar  
     8     4     5 ar  
     9     5     6 1   
    10     5     7 ar  
    11     6    30 1   
    12     6    31 1   
    13     6    32 1   
    14     7     9 ar  
    15     7    33 1   
    16     8     9 ar  
    17     9    10 1   
    18    10    34 1   
    19    10    35 1   
    20    10    36 1   
    21    11    12 1   
    22    12    13 ar  
    23    12    21 ar  
    24    13    14 ar  
    25    13    18 ar  
    26    14    15 ar  
    27    14    37 1   
    28    15    16 ar  
    29    15    38 1   
    30    16    17 ar  
    31    16    39 1   
    32    17    18 ar  
    33    17    40 1   
    34    18    19 ar  
    35    19    20 ar  
    36    19    41 1   
    37    20    21 ar  
    38    20    22 1   
    39    22    23 ar  
    40    22    27 ar  
    41    23    24 ar  
    42    24    25 ar  
    43    24    43 1   
    44    25    26 ar  
    45    25    44 1   
    46    26    27 ar  
    47    26    45 1   
    48    27    42 1   
@<TRIPOS>SUBSTRUCTURE
     1 083         1 TEMP              0 ****  ****    0 ROOT
