@<TRIPOS>MOLECULE
083
   45    48     1     0     0
SMALL
abcg2


@<TRIPOS>ATOM
      1 N2          15.2400    21.2050    18.8290 nv         1 083      -1.060200
      2 C7          15.1150    19.9350    18.4350 ce         1 083       0.648200
      3 C6          15.9760    19.5560    17.2550 ca         1 083       0.092700
      4 N1          15.8590    18.3300    16.7570 nb         1 083      -0.167000
      5 C4          16.6320    18.0200    15.7070 ca         1 083       0.131800
      6 C5          16.5180    16.6410    15.1330 c3         1 083      -0.151400
      7 C3          17.5140    18.9550    15.1760 ca         1 083      -0.214000
      8 N6          16.7900    20.5100    16.8040 nb         1 083      -0.167000
      9 C2          17.5720    20.2170    15.7570 ca         1 083       0.131800
     10 C1          18.4910    21.2800    15.2420 c3         1 083      -0.151400
     11 N3          14.3430    19.0210    18.9530 nf         1 083      -0.769700
     12 C8          13.5130    19.2470    20.0280 ca         1 083       0.623000
     13 C21         12.6960    18.1320    20.4480 ca         1 083      -0.073000
     14 C20         12.7340    16.8730    19.8130 ca         1 083      -0.051000
     15 C19         11.9390    15.8430    20.2580 ca         1 083      -0.132000
     16 C18         11.0750    16.0320    21.3560 ca         1 083      -0.089000
     17 C17         11.0170    17.2480    21.9900 ca         1 083      -0.115000
     18 C16         11.8230    18.3250    21.5510 ca         1 083      -0.011000
     19 C15         11.7900    19.5940    22.1710 ca         1 083      -0.125000
     20 C9          12.6020    20.5950    21.7030 cp         1 083       0.302000
     21 N4          13.4510    20.4160    20.6540 nb         1 083      -0.797000
     22 C10         12.6020    21.9410    22.3330 cp         1 083       0.303000
     23 N5          11.5490    22.2570    23.1030 nb         1 083      -0.672000
     24 C14         11.5180    23.4560    23.6810 ca         1 083       0.338900
     25 C13         12.5230    24.4060    23.5320 ca         1 083      -0.164000
     26 C12         13.6180    24.0780    22.7450 ca         1 083      -0.080000
     27 C11         13.6620    22.8310    22.1390 ca         1 083      -0.134000
     28 H21N        14.6780    21.5050    19.6160 hn         1 083       0.524000
     29 H22N        15.8810    21.8050    18.3330 hn         1 083       0.524000
     30 H51C        15.7190    16.0890    15.6220 hc         1 083       0.059700
     31 H52C        16.3210    16.6880    14.0600 hc         1 083       0.059700
     32 H53C        17.4570    16.0980    15.2660 hc         1 083       0.059700
     33 H3          18.1400    18.7080    14.3290 ha         1 083       0.134000
     34 H11C        18.4060    22.1820    15.8440 hc         1 083       0.059700
     35 H12C        19.5260    20.9310    15.2600 hc         1 083       0.059700
     36 H13C        18.2500    21.5200    14.2040 hc         1 083       0.059700
     37 H20         13.3980    16.7350    18.9720 ha         1 083       0.144000
     38 H19         11.9750    14.8800    19.7650 ha         1 083       0.113000
     39 H18         10.4550    15.2130    21.6980 ha         1 083       0.111000
     40 H17         10.3550    17.4030    22.8340 ha         1 083       0.116000
     41 H15         11.1330    19.7730    23.0100 ha         1 083       0.141000
     42 H11         14.5080    22.5410    21.5350 ha         1 083       0.130000
     43 H14         10.6480    23.6720    24.2920 h4         1 083       0.019100
     44 H13         12.4430    25.3680    24.0200 ha         1 083       0.123000
     45 H12         14.4310    24.7790    22.6080 ha         1 083       0.117000
@<TRIPOS>BOND
     1     1     2 1   
     2     1    28 1   
     3     1    29 1   
     4     2     3 1   
     5     2    11 2   
     6     3     4 ar  
     7     3     8 ar  
     8     4     5 ar  
     9     5     6 1   
    10     5     7 ar  
    11     6    30 1   
    12     6    31 1   
    13     6    32 1   
    14     7     9 ar  
    15     7    33 1   
    16     8     9 ar  
    17     9    10 1   
    18    10    34 1   
    19    10    35 1   
    20    10    36 1   
    21    11    12 1   
    22    12    13 ar  
    23    12    21 ar  
    24    13    14 ar  
    25    13    18 ar  
    26    14    15 ar  
    27    14    37 1   
    28    15    16 ar  
    29    15    38 1   
    30    16    17 ar  
    31    16    39 1   
    32    17    18 ar  
    33    17    40 1   
    34    18    19 ar  
    35    19    20 ar  
    36    19    41 1   
    37    20    21 ar  
    38    20    22 1   
    39    22    23 ar  
    40    22    27 ar  
    41    23    24 ar  
    42    24    25 ar  
    43    24    43 1   
    44    25    26 ar  
    45    25    44 1   
    46    26    27 ar  
    47    26    45 1   
    48    27    42 1   
@<TRIPOS>SUBSTRUCTURE
     1 083         1 TEMP              0 ****  ****    0 ROOT
