@<TRIPOS>MOLECULE
084
   66    70     1     0     0
SMALL
bcc


@<TRIPOS>ATOM
      1 C50         -4.6390     3.2480    -1.6750 c3         1 084      -0.108100
      2 C49         -4.4680     2.2880    -0.5000 c3         1 084       0.296800
      3 N48         -3.1400     1.7030    -0.4650 nu         1 084      -0.863900
      4 C40         -2.0520     2.3180     0.0330 ca         1 084       0.916900
      5 N39         -2.2120     3.5110     0.6190 nb         1 084      -0.773000
      6 C38         -1.1250     4.0490     1.1460 ca         1 084       0.481200
      7 C37          0.1190     3.4470     1.1060 ca         1 084      -0.444600
      8 C12          0.1840     2.2220     0.4410 ca         1 084       0.579800
      9 N41         -0.8910     1.6670    -0.0990 nb         1 084      -0.766000
     10 C1           1.4280     1.4610     0.3340 cc         1 084      -0.276100
     11 C5           1.6750     0.1160     0.5040 cd         1 084       0.408800
     12 N4           2.9950    -0.1350     0.2980 nd         1 084      -0.673000
     13 C3           3.5570     1.0140     0.0090 cc         1 084       0.426800
     14 C10          5.0090     1.1790    -0.2920 c6         1 084      -0.086000
     15 C13          5.8750     0.6000     0.8320 c6         1 084      -0.070400
     16 C14          7.3490     0.7160     0.4760 c6         1 084       0.158800
     17 N15          7.6110     0.0290    -0.7760 n7         1 084      -0.801200
     18 C16          6.8770     0.6290    -1.8760 c6         1 084       0.158800
     19 C17          5.3800     0.5180    -1.6260 c6         1 084      -0.070400
     20 N2           2.6480     2.0170     0.0200 na         1 084      -0.168900
     21 C6           2.9010     3.3960    -0.3500 c3         1 084       0.023600
     22 C11          0.7680    -0.9730     0.8770 ca         1 084      -0.100500
     23 C28          1.0110    -2.2500     0.3800 ca         1 084      -0.052000
     24 C29          0.1830    -3.3130     0.7230 ca         1 084      -0.205300
     25 C30         -0.8950    -3.1190     1.5750 ca         1 084      -0.078000
     26 C31         -1.1300    -1.8490     2.0870 ca         1 084      -0.143000
     27 C32         -0.3070    -0.7890     1.7490 ca         1 084      -0.076000
     28 C44          0.4850    -4.6600     0.1460 c3         1 084       0.720200
     29 F45         -0.3610    -5.6050     0.5660 f          1 084      -0.236967
     30 F46          0.4260    -4.6500    -1.1940 f          1 084      -0.236967
     31 F47          1.7220    -5.0720     0.4660 f          1 084      -0.236967
     32 C54         -5.4990     1.1830    -0.5090 ca         1 084      -0.102300
     33 C60         -6.3810     1.0380     0.5560 ca         1 084      -0.115000
     34 C59         -7.3360     0.0290     0.5570 ca         1 084      -0.128500
     35 C58         -7.4150    -0.8540    -0.5090 ca         1 084      -0.120000
     36 C57         -6.5370    -0.7200    -1.5780 ca         1 084      -0.128500
     37 C56         -5.5900     0.2930    -1.5790 ca         1 084      -0.115000
     38 H501        -3.8990     4.0470    -1.6240 hc         1 084       0.045033
     39 H502        -4.5230     2.7350    -2.6300 hc         1 084       0.045033
     40 H503        -5.6300     3.7040    -1.6560 hc         1 084       0.045033
     41 H49         -4.5930     2.8600     0.4220 h1         1 084       0.079700
     42 H48         -2.9770     0.8350    -0.9490 hn         1 084       0.454800
     43 H38         -1.2510     5.0090     1.6350 h4         1 084       0.020100
     44 H37          0.9760     3.8990     1.5830 ha         1 084       0.151000
     45 H10          5.2440     2.2460    -0.3710 hc         1 084       0.041700
     46 H131         5.6760     1.1250     1.7690 hc         1 084       0.060700
     47 H132         5.6150    -0.4500     0.9850 hc         1 084       0.060700
     48 H141         7.6220     1.7840     0.4360 h1         1 084       0.028200
     49 H142         7.9560     0.2640     1.2640 h1         1 084       0.028200
     50 H15          8.6020     0.0620    -0.9770 hn         1 084       0.354800
     51 H161         7.1330     1.6920    -2.0220 h1         1 084       0.028200
     52 H162         7.1380     0.1110    -2.8000 h1         1 084       0.028200
     53 H171         5.0880    -0.5350    -1.5980 hc         1 084       0.060700
     54 H172         4.8330     0.9870    -2.4470 hc         1 084       0.060700
     55 H61          3.2670     3.9730     0.4980 h1         1 084       0.057367
     56 H62          3.6350     3.4390    -1.1500 h1         1 084       0.057367
     57 H63          1.9870     3.8520    -0.7160 h1         1 084       0.057367
     58 H28          1.8510    -2.3990    -0.2860 ha         1 084       0.161000
     59 H30         -1.5500    -3.9330     1.8520 ha         1 084       0.145000
     60 H31         -1.9570    -1.6920     2.7650 ha         1 084       0.136000
     61 H32         -0.4950     0.1830     2.1830 ha         1 084       0.135000
     62 H60         -6.3230     1.7220     1.3950 ha         1 084       0.131500
     63 H59         -8.0160    -0.0660     1.3940 ha         1 084       0.133000
     64 H58         -8.1560    -1.6430    -0.5100 ha         1 084       0.133000
     65 H57         -6.5930    -1.4040    -2.4150 ha         1 084       0.133000
     66 H56         -4.9200     0.3850    -2.4270 ha         1 084       0.131500
@<TRIPOS>BOND
     1     1     2 1   
     2     1    38 1   
     3     1    39 1   
     4     1    40 1   
     5     2     3 1   
     6     2    32 1   
     7     2    41 1   
     8     3     4 1   
     9     3    42 1   
    10     4     5 ar  
    11     4     9 ar  
    12     5     6 ar  
    13     6     7 ar  
    14     6    43 1   
    15     7     8 ar  
    16     7    44 1   
    17     8     9 ar  
    18     8    10 1   
    19    10    11 2   
    20    10    20 1   
    21    11    12 1   
    22    11    22 1   
    23    12    13 2   
    24    13    14 1   
    25    13    20 1   
    26    14    15 1   
    27    14    19 1   
    28    14    45 1   
    29    15    16 1   
    30    15    46 1   
    31    15    47 1   
    32    16    17 1   
    33    16    48 1   
    34    16    49 1   
    35    17    18 1   
    36    17    50 1   
    37    18    19 1   
    38    18    51 1   
    39    18    52 1   
    40    19    53 1   
    41    19    54 1   
    42    20    21 1   
    43    21    55 1   
    44    21    56 1   
    45    21    57 1   
    46    22    23 ar  
    47    22    27 ar  
    48    23    24 ar  
    49    23    58 1   
    50    24    25 ar  
    51    24    28 1   
    52    25    26 ar  
    53    25    59 1   
    54    26    27 ar  
    55    26    60 1   
    56    27    61 1   
    57    28    29 1   
    58    28    30 1   
    59    28    31 1   
    60    32    33 ar  
    61    32    37 ar  
    62    33    34 ar  
    63    33    62 1   
    64    34    35 ar  
    65    34    63 1   
    66    35    36 ar  
    67    35    64 1   
    68    36    37 ar  
    69    36    65 1   
    70    37    66 1   
@<TRIPOS>SUBSTRUCTURE
     1 084         1 TEMP              0 ****  ****    0 ROOT
