@<TRIPOS>MOLECULE
084
   66    70     1     0     0
SMALL
No Charge or Current Charge


@<TRIPOS>ATOM
      1 C50         -4.6120     3.4580    -1.5440 c3         1 084      -0.108100
      2 C49         -4.4990     2.2960    -0.5350 c3         1 084       0.296800
      3 N48         -3.1150     1.8140    -0.4630 nu         1 084      -0.919100
      4 C40         -2.0390     2.3870     0.1990 ca         1 084       0.390900
      5 N39         -2.2460     3.5300     0.8800 nb         1 084      -0.247000
      6 C38         -1.1800     4.0510     1.5140 ca         1 084       0.152900
      7 C37          0.0740     3.4240     1.4650 ca         1 084      -0.296000
      8 C12          0.1850     2.2300     0.7330 ca         1 084       0.251500
      9 N41         -0.8820     1.7150     0.0900 nb         1 084      -0.240000
     10 C1           1.4650     1.5350     0.6370 cc         1 084      -0.261500
     11 C5           1.6340     0.1710     0.7470 cd         1 084       0.343500
     12 N4           2.9350    -0.1470     0.4090 nd         1 084      -0.673000
     13 C3           3.5420     0.9850     0.0730 cc         1 084       0.426800
     14 C10          4.9850     1.1140    -0.3880 c6         1 084      -0.086000
     15 C13          5.9340     0.1520     0.3830 c6         1 084      -0.070400
     16 C14          7.3840     0.2560    -0.1530 c6         1 084       0.158800
     17 N15          7.4370     0.0040    -1.6130 n7         1 084      -0.856400
     18 C16          6.5690     0.9220    -2.3890 c6         1 084       0.158800
     19 C17          5.0970     0.8440    -1.9140 c6         1 084      -0.070400
     20 N2           2.6580     2.0490     0.1710 na         1 084      -0.147500
     21 C6           2.9230     3.4510    -0.2050 c3         1 084       0.052900
     22 C11          0.7200    -0.8700     1.2870 ca         1 084      -0.100500
     23 C28          0.9890    -2.2350     1.0300 ca         1 084      -0.034000
     24 C29          0.1670    -3.2600     1.5480 ca         1 084      -0.205300
     25 C30         -0.9210    -2.9120     2.3750 ca         1 084      -0.060000
     26 C31         -1.1740    -1.5660     2.6740 ca         1 084      -0.125000
     27 C32         -0.3570    -0.5540     2.1460 ca         1 084      -0.058000
     28 C44          0.4820    -4.7260     1.2320 c3         1 084       0.356300
     29 F45         -0.5880    -5.5380     1.3980 f          1 084      -0.115667
     30 F46          0.8970    -4.8920    -0.0440 f          1 084      -0.115667
     31 F47          1.4630    -5.2010     2.0320 f          1 084      -0.115667
     32 C54         -5.4140     1.1210    -0.8860 ca         1 084      -0.102300
     33 C60         -6.3140     0.6200     0.0770 ca         1 084      -0.097000
     34 C59         -7.1580    -0.4620    -0.2290 ca         1 084      -0.110500
     35 C58         -7.1080    -1.0570    -1.5000 ca         1 084      -0.102000
     36 C57         -6.2110    -0.5700    -2.4650 ca         1 084      -0.110500
     37 C56         -5.3670     0.5120    -2.1600 ca         1 084      -0.097000
     38 H501        -4.0220     4.3200    -1.2120 hc         1 084       0.045033
     39 H502        -4.2540     3.1630    -2.5370 hc         1 084       0.045033
     40 H503        -5.6560     3.7800    -1.6350 hc         1 084       0.045033
     41 H49         -4.8060     2.6760     0.4520 h1         1 084       0.079700
     42 H48         -2.9230     0.9160    -0.9030 hn         1 084       0.510000
     43 H38         -1.3350     4.9760     2.0670 h4         1 084       0.020100
     44 H37          0.9290     3.8470     1.9860 ha         1 084       0.133000
     45 H10          5.3380     2.1370    -0.1960 hc         1 084       0.041700
     46 H131         5.9190     0.3840     1.4560 hc         1 084       0.060700
     47 H132         5.5910    -0.8870     0.2810 hc         1 084       0.060700
     48 H141         7.7820     1.2600     0.0590 h1         1 084       0.028200
     49 H142         8.0230    -0.4720     0.3680 h1         1 084       0.028200
     50 H15          8.4080     0.1150    -1.9340 hn         1 084       0.410000
     51 H161         6.9360     1.9530    -2.2740 h1         1 084       0.028200
     52 H162         6.6260     0.6660    -3.4570 h1         1 084       0.028200
     53 H171         4.6910    -0.1500    -2.1490 hc         1 084       0.060700
     54 H172         4.4900     1.5680    -2.4740 hc         1 084       0.060700
     55 H61          3.3920     3.9740     0.6370 h1         1 084       0.057367
     56 H62          3.5910     3.4880    -1.0740 h1         1 084       0.057367
     57 H63          1.9850     3.9550    -0.4670 h1         1 084       0.057367
     58 H28          1.8370    -2.5040     0.4030 ha         1 084       0.143000
     59 H30         -1.5630    -3.6800     2.8030 ha         1 084       0.127000
     60 H31         -2.0000    -1.3050     3.3320 ha         1 084       0.118000
     61 H32         -0.5550     0.4710     2.4430 ha         1 084       0.117000
     62 H60         -6.3620     1.0690     1.0670 ha         1 084       0.113500
     63 H59         -7.8500    -0.8400     0.5210 ha         1 084       0.115000
     64 H58         -7.7600    -1.8950    -1.7360 ha         1 084       0.115000
     65 H57         -6.1680    -1.0320    -3.4490 ha         1 084       0.115000
     66 H56         -4.6740     0.8720    -2.9170 ha         1 084       0.113500
@<TRIPOS>BOND
     1     1     2 1   
     2     1    38 1   
     3     1    39 1   
     4     1    40 1   
     5     2     3 1   
     6     2    32 1   
     7     2    41 1   
     8     3     4 1   
     9     3    42 1   
    10     4     5 ar  
    11     4     9 ar  
    12     5     6 ar  
    13     6     7 ar  
    14     6    43 1   
    15     7     8 ar  
    16     7    44 1   
    17     8     9 ar  
    18     8    10 1   
    19    10    11 2   
    20    10    20 1   
    21    11    12 1   
    22    11    22 1   
    23    12    13 2   
    24    13    14 1   
    25    13    20 1   
    26    14    15 1   
    27    14    19 1   
    28    14    45 1   
    29    15    16 1   
    30    15    46 1   
    31    15    47 1   
    32    16    17 1   
    33    16    48 1   
    34    16    49 1   
    35    17    18 1   
    36    17    50 1   
    37    18    19 1   
    38    18    51 1   
    39    18    52 1   
    40    19    53 1   
    41    19    54 1   
    42    20    21 1   
    43    21    55 1   
    44    21    56 1   
    45    21    57 1   
    46    22    23 ar  
    47    22    27 ar  
    48    23    24 ar  
    49    23    58 1   
    50    24    25 ar  
    51    24    28 1   
    52    25    26 ar  
    53    25    59 1   
    54    26    27 ar  
    55    26    60 1   
    56    27    61 1   
    57    28    29 1   
    58    28    30 1   
    59    28    31 1   
    60    32    33 ar  
    61    32    37 ar  
    62    33    34 ar  
    63    33    62 1   
    64    34    35 ar  
    65    34    63 1   
    66    35    36 ar  
    67    35    64 1   
    68    36    37 ar  
    69    36    65 1   
    70    37    66 1   
@<TRIPOS>SUBSTRUCTURE
     1 084         1 TEMP              0 ****  ****    0 ROOT
