@<TRIPOS>MOLECULE
085
   45    49     1     0     0
SMALL
abcg2


@<TRIPOS>ATOM
      1 CAM         -2.3710     1.7740     0.5250 ca         1 085      -0.096000
      2 CAZ         -3.5460     2.4560     0.3450 ca         1 085       0.048100
      3 OAS         -3.9440     3.6160     0.9220 os         1 085      -0.345100
      4 CAN         -5.2980     3.8090     0.5340 c5         1 085       0.374600
      5 OAR         -5.5650     2.8850    -0.5140 os         1 085      -0.342100
      6 CAY         -4.5300     2.0140    -0.5240 ca         1 085       0.062100
      7 CAL         -4.3770     0.8630    -1.2590 ca         1 085      -0.100000
      8 CAK         -3.1840     0.1570    -1.0920 ca         1 085      -0.058000
      9 CAW         -2.1940     0.5890    -0.2170 ca         1 085      -0.016000
     10 CBB         -0.9310    -0.1380    -0.0950 cc         1 085      -0.087000
     11 NAP          0.2550     0.5370    -0.1010 na         1 085      -0.285500
     12 CBA          1.2680    -0.3560    -0.0140 cc         1 085       0.458000
     13 CAV          2.6800     0.0010    -0.0000 ca         1 085      -0.096500
     14 CAJ          3.1080     1.3280    -0.0070 ca         1 085      -0.103000
     15 CAH          4.4560     1.6320     0.0060 ca         1 085      -0.070500
     16 CAI          3.6410    -1.0110     0.0230 ca         1 085      -0.103000
     17 CAG          4.9880    -0.7010     0.0370 ca         1 085      -0.070500
     18 CAU          5.4190     0.6260     0.0280 ca         1 085      -0.143600
     19 CAT          6.8580     1.0410     0.0410 c          1 085       0.618700
     20 OAB          7.1640     2.2270     0.0490 o          1 085      -0.608100
     21 NAA          7.7790     0.0680     0.0430 nt         1 085      -0.603000
     22 NAQ          0.7910    -1.5740     0.0560 nd         1 085      -0.667000
     23 CBC         -0.5660    -1.4700     0.0140 cd         1 085       0.200000
     24 CAX         -1.3970    -2.6700     0.1270 ca         1 085       0.331000
     25 CAF         -0.8260    -3.9350    -0.0320 ca         1 085      -0.132000
     26 CAD         -1.6350    -5.0510     0.0880 ca         1 085      -0.080000
     27 CAC         -2.9840    -4.8810     0.3650 ca         1 085      -0.166000
     28 CAE         -3.4550    -3.5850     0.5120 ca         1 085       0.337900
     29 NAO         -2.6900    -2.5090     0.4010 nb         1 085      -0.676000
     30 H1          -1.6210     2.1260     1.2210 ha         1 085       0.131000
     31 H2          -5.9610     3.6090     1.3830 h2         1 085       0.065700
     32 H3          -5.1370     0.5200    -1.9470 ha         1 085       0.136000
     33 H4          -3.0320    -0.7450    -1.6660 ha         1 085       0.133000
     34 H5           0.3400     1.5360    -0.2210 hn         1 085       0.359000
     35 H6           2.3970     2.1450    -0.0180 ha         1 085       0.124500
     36 H7           4.7640     2.6690     0.0010 ha         1 085       0.125500
     37 H8           3.3290    -2.0460     0.0290 ha         1 085       0.124500
     38 H9           5.6870    -1.5270     0.0570 ha         1 085       0.125500
     39 H10          7.5600    -0.9110     0.0240 hn         1 085       0.315500
     40 H11          8.7560     0.3110     0.0460 hn         1 085       0.315500
     41 H13          0.2290    -4.0330    -0.2450 ha         1 085       0.141000
     42 H14         -1.2170    -6.0420    -0.0360 ha         1 085       0.118000
     43 H15         -3.6530    -5.7240     0.4670 ha         1 085       0.123000
     44 H16         -4.5020    -3.4070     0.7320 h4         1 085       0.017100
     45 H17         -5.4380     4.8270     0.1730 h2         1 085       0.065700
@<TRIPOS>BOND
     1     1     2 ar  
     2     1     9 ar  
     3     1    30 1   
     4     2     3 1   
     5     2     6 ar  
     6     3     4 1   
     7     4     5 1   
     8     4    31 1   
     9     4    45 1   
    10     5     6 1   
    11     6     7 ar  
    12     7     8 ar  
    13     7    32 1   
    14     8     9 ar  
    15     8    33 1   
    16     9    10 1   
    17    10    11 1   
    18    10    23 2   
    19    11    12 1   
    20    11    34 1   
    21    12    13 1   
    22    12    22 2   
    23    13    14 ar  
    24    13    16 ar  
    25    14    15 ar  
    26    14    35 1   
    27    15    18 ar  
    28    15    36 1   
    29    16    17 ar  
    30    16    37 1   
    31    17    18 ar  
    32    17    38 1   
    33    18    19 1   
    34    19    20 2   
    35    19    21 1   
    36    21    39 1   
    37    21    40 1   
    38    22    23 1   
    39    23    24 1   
    40    24    25 ar  
    41    24    29 ar  
    42    25    26 ar  
    43    25    41 1   
    44    26    27 ar  
    45    26    42 1   
    46    27    28 ar  
    47    27    43 1   
    48    28    29 ar  
    49    28    44 1   
@<TRIPOS>SUBSTRUCTURE
     1 085         1 TEMP              0 ****  ****    0 ROOT
