@<TRIPOS>MOLECULE
085
   45    49     1     0     0
SMALL
No Charge or Current Charge


@<TRIPOS>ATOM
      1 CAM         -2.5160     1.6610     0.6170 ca         1 085      -0.096000
      2 CAZ         -3.7760     2.2530     0.4670 ca         1 085       0.048100
      3 OAS         -4.2800     3.2530     1.2350 os         1 085      -0.345100
      4 CAN         -5.6370     3.4270     0.6900 c5         1 085       0.374600
      5 OAR         -5.7950     2.5810    -0.5050 os         1 085      -0.342100
      6 CAY         -4.6380     1.8710    -0.5220 ca         1 085       0.062100
      7 CAL         -4.3030     0.8710    -1.4410 ca         1 085      -0.100000
      8 CAK         -3.0420     0.2500    -1.3140 ca         1 085      -0.058000
      9 CAW         -2.1500     0.6290    -0.2770 ca         1 085      -0.016000
     10 CBB         -0.8270     0.0160    -0.1700 cc         1 085      -0.087000
     11 NAP          0.3750     0.6800    -0.1460 na         1 085      -0.285500
     12 CBA          1.3670    -0.2640    -0.0650 cc         1 085       0.458000
     13 CAV          2.8080     0.0420    -0.0510 ca         1 085      -0.096500
     14 CAJ          3.2770     1.3730    -0.1240 ca         1 085      -0.103000
     15 CAH          4.6550     1.6530    -0.1080 ca         1 085      -0.070500
     16 CAI          3.7600    -0.9960     0.0390 ca         1 085      -0.103000
     17 CAG          5.1380    -0.7190     0.0540 ca         1 085      -0.070500
     18 CAU          5.6060     0.6140    -0.0190 ca         1 085      -0.143600
     19 CAT          7.0830     0.9500    -0.0050 c          1 085       0.618700
     20 OAB          7.5000     2.0950    -0.0680 o          1 085      -0.608100
     21 NAA          7.9730    -0.0630     0.0810 nt         1 085      -0.603000
     22 NAQ          0.8430    -1.4810     0.0050 nd         1 085      -0.667000
     23 CBC         -0.5410    -1.3320    -0.0340 cd         1 085       0.200000
     24 CAX         -1.4700    -2.5050     0.0960 ca         1 085       0.331000
     25 CAF         -0.9510    -3.8220     0.0680 ca         1 085      -0.132000
     26 CAD         -1.8080    -4.9210     0.2370 ca         1 085      -0.080000
     27 CAC         -3.1710    -4.6700     0.4470 ca         1 085      -0.166000
     28 CAE         -3.6190    -3.3410     0.4870 ca         1 085       0.337900
     29 NAO         -2.7940    -2.2820     0.3240 nb         1 085      -0.676000
     30 H1          -1.8440     1.9850     1.4070 ha         1 085       0.131000
     31 H2          -6.3670     3.1160     1.4460 h2         1 085       0.065700
     32 H3          -4.9930     0.5850    -2.2310 ha         1 085       0.136000
     33 H4          -2.7530    -0.5250    -2.0200 ha         1 085       0.133000
     34 H5           0.5170     1.6780    -0.2100 hn         1 085       0.359000
     35 H6           2.5820     2.2060    -0.1930 ha         1 085       0.124500
     36 H7           4.9810     2.6890    -0.1660 ha         1 085       0.125500
     37 H8           3.4350    -2.0330     0.0970 ha         1 085       0.124500
     38 H9           5.8300    -1.5550     0.1240 ha         1 085       0.125500
     39 H10          7.6550    -1.0170     0.1340 hn         1 085       0.315500
     40 H11          8.9590     0.1510     0.0910 hn         1 085       0.315500
     41 H13          0.1110    -3.9890    -0.0910 ha         1 085       0.141000
     42 H14         -1.4240    -5.9390     0.2090 ha         1 085       0.118000
     43 H15         -3.8740    -5.4860     0.5850 ha         1 085       0.123000
     44 H16         -4.6710    -3.1140     0.6570 h4         1 085       0.017100
     45 H17         -5.7970     4.4780     0.4230 h2         1 085       0.065700
@<TRIPOS>BOND
     1     1     2 ar  
     2     1     9 ar  
     3     1    30 1   
     4     2     3 1   
     5     2     6 ar  
     6     3     4 1   
     7     4     5 1   
     8     4    31 1   
     9     4    45 1   
    10     5     6 1   
    11     6     7 ar  
    12     7     8 ar  
    13     7    32 1   
    14     8     9 ar  
    15     8    33 1   
    16     9    10 1   
    17    10    11 1   
    18    10    23 2   
    19    11    12 1   
    20    11    34 1   
    21    12    13 1   
    22    12    22 2   
    23    13    14 ar  
    24    13    16 ar  
    25    14    15 ar  
    26    14    35 1   
    27    15    18 ar  
    28    15    36 1   
    29    16    17 ar  
    30    16    37 1   
    31    17    18 ar  
    32    17    38 1   
    33    18    19 1   
    34    19    20 2   
    35    19    21 1   
    36    21    39 1   
    37    21    40 1   
    38    22    23 1   
    39    23    24 1   
    40    24    25 ar  
    41    24    29 ar  
    42    25    26 ar  
    43    25    41 1   
    44    26    27 ar  
    45    26    42 1   
    46    27    28 ar  
    47    27    43 1   
    48    28    29 ar  
    49    28    44 1   
@<TRIPOS>SUBSTRUCTURE
     1 085         1 TEMP              0 ****  ****    0 ROOT
