@<TRIPOS>MOLECULE
087
   45    47     1     0     0
SMALL
abcg2


@<TRIPOS>ATOM
      1 C1           5.1990     8.1590    23.0690 c3         1 087      -0.030800
      2 CL1         -5.0180    -0.5990    23.4920 cl         1 087      -0.187000
      3 C2           4.1160     7.1430    23.0440 cc         1 087      -0.114300
      4 CL2          1.5000     4.6330    21.5250 cl         1 087      -0.156000
      5 C3           3.5120     6.4970    21.9760 cd         1 087       0.036000
      6 CL3          3.9140     6.7130    20.3150 cl         1 087      -0.155000
      7 C4           2.5120     5.6410    22.4870 cd         1 087       0.096000
      8 C5           2.5130     5.7720    23.8700 cc         1 087      -0.231600
      9 N6           3.4950     6.6880    24.1620 na         1 087      -0.063000
     10 C8           1.7590     5.1890    24.9890 c          1 087       0.642700
     11 O9           2.0110     5.5530    26.1460 o          1 087      -0.636100
     12 N10          0.8100     4.2810    24.6910 ns         1 087      -0.487900
     13 C11          0.0090     3.5980    25.6940 c6         1 087       0.111700
     14 C12         -1.4290     3.4360    25.1990 c6         1 087      -0.123900
     15 C13         -2.2630     2.6400    26.2050 c6         1 087       0.212800
     16 N14         -1.6330     1.3490    26.4850 nh         1 087      -0.764300
     17 C15         -0.2980     1.5120    27.0560 c6         1 087       0.212800
     18 C16          0.6190     2.2430    26.0760 c6         1 087      -0.123900
     19 C17         -1.9760     0.2410    25.7640 ca         1 087       0.629900
     20 C18         -1.1980    -0.9390    25.7560 ca         1 087      -0.186000
     21 C19         -1.6430    -2.0390    25.0520 ca         1 087      -0.065600
     22 C20         -2.8450    -1.9770    24.3370 ca         1 087      -0.197000
     23 C21         -3.5100    -0.7670    24.3950 ca         1 087       0.497000
     24 N22         -3.1240     0.2960    25.0580 nb         1 087      -0.737000
     25 C24         -0.7800    -3.2750    25.0660 c          1 087       0.608700
     26 O25          0.4290    -3.2000    25.2790 o          1 087      -0.600100
     27 N26         -1.4050    -4.4410    24.8320 nt         1 087      -0.598000
     28 H1           4.8010     9.1620    22.8980 hc         1 087       0.058367
     29 H1A          5.7070     8.1540    24.0340 hc         1 087       0.058367
     30 H1B          5.9310     7.9550    22.2880 hc         1 087       0.058367
     31 HN10         0.6950     3.9960    23.7300 hn         1 087       0.328500
     32 H11          0.0070     4.2360    26.5800 h1         1 087       0.080700
     33 H12         -1.8790     4.4190    25.0410 hc         1 087       0.061450
     34 H12A        -1.4300     2.9110    24.2390 hc         1 087       0.061450
     35 H13         -2.3290     3.1840    27.1500 h1         1 087       0.068950
     36 H13A        -3.2690     2.4780    25.8330 h1         1 087       0.068950
     37 H15         -0.4070     2.1020    27.9700 h1         1 087       0.068950
     38 H15A         0.1170     0.5530    27.3490 h1         1 087       0.068950
     39 H16          0.7490     1.6370    25.1740 hc         1 087       0.061450
     40 H16A         1.6030     2.3940    26.5230 hc         1 087       0.061450
     41 H18         -0.2600    -1.0080    26.2800 ha         1 087       0.149000
     42 H20         -3.2220    -2.7920    23.7400 ha         1 087       0.138000
     43 HN26        -0.8680    -5.2940    24.8540 hn         1 087       0.320500
     44 HN2A        -2.4060    -4.5130    24.7530 hn         1 087       0.320500
     45 HN6          3.7090     6.9630    25.1090 hn         1 087       0.376000
@<TRIPOS>BOND
     1     1     3 1   
     2     1    28 1   
     3     1    29 1   
     4     1    30 1   
     5     2    23 1   
     6     3     5 2   
     7     3     9 1   
     8     4     7 1   
     9     5     6 1   
    10     5     7 1   
    11     7     8 2   
    12     8     9 1   
    13     8    10 1   
    14     9    45 1   
    15    10    11 2   
    16    10    12 1   
    17    12    13 1   
    18    12    31 1   
    19    13    14 1   
    20    13    18 1   
    21    13    32 1   
    22    14    15 1   
    23    14    33 1   
    24    14    34 1   
    25    15    16 1   
    26    15    35 1   
    27    15    36 1   
    28    16    17 1   
    29    16    19 1   
    30    17    18 1   
    31    17    37 1   
    32    17    38 1   
    33    18    39 1   
    34    18    40 1   
    35    19    20 ar  
    36    19    24 ar  
    37    20    21 ar  
    38    20    41 1   
    39    21    22 ar  
    40    21    25 1   
    41    22    23 ar  
    42    22    42 1   
    43    23    24 ar  
    44    25    26 2   
    45    25    27 1   
    46    27    43 1   
    47    27    44 1   
@<TRIPOS>SUBSTRUCTURE
     1 087         1 TEMP              0 ****  ****    0 ROOT
