@<TRIPOS>MOLECULE
087
   45    47     1     0     0
SMALL
No Charge or Current Charge


@<TRIPOS>ATOM
      1 C1           5.4440     8.7810    23.5110 c3         1 087      -0.030800
      2 Cl1         -5.7300    -1.0620    26.1150 cl         1 087      -0.187000
      3 C2           4.3350     7.7640    23.4700 cc         1 087      -0.114300
      4 Cl2          1.6500     5.4870    21.7270 cl         1 087      -0.156000
      5 C3           3.6560     7.2600    22.3980 cd         1 087       0.036000
      6 Cl3          3.9050     7.6750    20.7280 cl         1 087      -0.155000
      7 C4           2.6950     6.3250    22.8430 cd         1 087       0.096000
      8 C5           2.7670     6.2380    24.2190 cc         1 087      -0.231600
      9 N6           3.7850     7.1330    24.5900 na         1 087      -0.063000
     10 C8           1.9640     5.3960    25.1360 c          1 087       0.642700
     11 O9           2.1290     5.4120    26.3470 o          1 087      -0.636100
     12 N10          1.0180     4.5950    24.5470 ns         1 087      -0.487900
     13 C11          0.1240     3.6640    25.2420 c6         1 087       0.111700
     14 C12         -1.1250     3.3850    24.3800 c6         1 087      -0.123900
     15 C13         -2.0650     2.3650    25.0630 c6         1 087       0.212800
     16 N14         -1.3340     1.1050    25.3850 nh         1 087      -0.764300
     17 C15         -0.1090     1.3160    26.2060 c6         1 087       0.212800
     18 C16          0.8420     2.3240    25.5230 c6         1 087      -0.123900
     19 C17         -2.0100    -0.1260    25.4630 ca         1 087       0.629900
     20 C18         -1.3350    -1.3460    25.2850 ca         1 087      -0.186000
     21 C19         -2.0390    -2.5660    25.3700 ca         1 087      -0.065600
     22 C20         -3.4230    -2.4710    25.6350 ca         1 087      -0.197000
     23 C21         -4.0090    -1.2060    25.7910 ca         1 087       0.497000
     24 N22         -3.3270    -0.0500    25.7070 nb         1 087      -0.737000
     25 C24         -1.3210    -3.8880    25.1790 c          1 087       0.608700
     26 O25         -0.1240    -3.9620    24.9510 o          1 087      -0.600100
     27 N26         -2.0430    -5.0270    25.2660 nt         1 087      -0.598000
     28 H1           5.1140     9.7340    23.0810 hc         1 087       0.058367
     29 H1A          5.7770     8.9720    24.5380 hc         1 087       0.058367
     30 H1B          6.3100     8.4340    22.9350 hc         1 087       0.058367
     31 HN10         0.9570     4.6520    23.5400 hn         1 087       0.328500
     32 H11         -0.1900     4.1170    26.1960 h1         1 087       0.080700
     33 H12         -1.6720     4.3200    24.1970 hc         1 087       0.061450
     34 H12A        -0.8260     2.9980    23.3960 hc         1 087       0.061450
     35 H13         -2.4850     2.8070    25.9790 h1         1 087       0.068950
     36 H13A        -2.9060     2.1670    24.3800 h1         1 087       0.068950
     37 H15         -0.3860     1.6960    27.2010 h1         1 087       0.068950
     38 H15A         0.4360     0.3740    26.3650 h1         1 087       0.068950
     39 H16          1.2180     1.8930    24.5850 hc         1 087       0.061450
     40 H16A         1.7170     2.4920    26.1650 hc         1 087       0.061450
     41 H18         -0.2720    -1.3390    25.0670 ha         1 087       0.149000
     42 H20         -4.0540    -3.3500    25.7200 ha         1 087       0.138000
     43 HN26        -1.5780    -5.9140    25.1410 hn         1 087       0.320500
     44 HN2A        -3.0330    -4.9910    25.4530 hn         1 087       0.320500
     45 HN6          4.0800     7.2980    25.5490 hn         1 087       0.376000
@<TRIPOS>BOND
     1     1     3 1   
     2     1    28 1   
     3     1    29 1   
     4     1    30 1   
     5     2    23 1   
     6     3     5 2   
     7     3     9 1   
     8     4     7 1   
     9     5     6 1   
    10     5     7 1   
    11     7     8 2   
    12     8     9 1   
    13     8    10 1   
    14     9    45 1   
    15    10    11 2   
    16    10    12 1   
    17    12    13 1   
    18    12    31 1   
    19    13    14 1   
    20    13    18 1   
    21    13    32 1   
    22    14    15 1   
    23    14    33 1   
    24    14    34 1   
    25    15    16 1   
    26    15    35 1   
    27    15    36 1   
    28    16    17 1   
    29    16    19 1   
    30    17    18 1   
    31    17    37 1   
    32    17    38 1   
    33    18    39 1   
    34    18    40 1   
    35    19    20 ar  
    36    19    24 ar  
    37    20    21 ar  
    38    20    41 1   
    39    21    22 ar  
    40    21    25 1   
    41    22    23 ar  
    42    22    42 1   
    43    23    24 ar  
    44    25    26 2   
    45    25    27 1   
    46    27    43 1   
    47    27    44 1   
@<TRIPOS>SUBSTRUCTURE
     1 087         1 TEMP              0 ****  ****    0 ROOT
