@<TRIPOS>MOLECULE
088
   60    64     1     0     0
SMALL
abcg2


@<TRIPOS>ATOM
      1 C1          -6.5320    -2.4920    -0.2160 c3         1 088      -0.085600
      2 C2          -5.4230    -2.4160    -1.2680 c3         1 088      -0.096000
      3 C3          -5.9910    -2.1410    -2.6630 c3         1 088      -0.085600
      4 C4          -4.3950    -1.4040    -0.8940 cc         1 088       0.176300
      5 O5          -4.8050    -0.1410    -0.7450 os         1 088      -0.075700
      6 N6          -3.7600     0.6520    -0.3980 nc         1 088      -0.342300
      7 C7          -2.7180    -0.1230    -0.3430 cd         1 088       0.358500
      8 C8          -3.0580    -1.4710    -0.6590 cd         1 088      -0.214300
      9 C9          -2.1770    -2.6690    -0.7790 c3         1 088       0.247900
     10 O10         -1.4980    -2.9690     0.4290 os         1 088      -0.358100
     11 C11         -0.1970    -2.5670     0.5680 ca         1 088       0.080100
     12 C12          0.7450    -2.7360    -0.4630 ca         1 088      -0.151000
     13 C13          2.0490    -2.3120    -0.3070 ca         1 088      -0.090000
     14 C14          2.4110    -1.7420     0.9080 ca         1 088      -0.059200
     15 N15          3.6140    -1.2360     1.3280 na         1 088      -0.079700
     16 C16          4.7700    -1.0260     0.4860 c3         1 088       0.132900
     17 C17          4.5800     0.1310    -0.4650 ca         1 088      -0.159300
     18 C18          4.5510    -0.0690    -1.8390 ca         1 088      -0.120000
     19 C19          4.3480     1.0070    -2.6960 ca         1 088      -0.147000
     20 C20          4.1700     2.2820    -2.1820 ca         1 088      -0.075000
     21 C21          4.1890     2.5020    -0.8050 ca         1 088      -0.142600
     22 C22          4.4030     1.4170     0.0360 ca         1 088      -0.077000
     23 C23          3.9600     3.8930    -0.2300 c          1 088       0.710600
     24 O24          3.8990     4.8320    -1.0450 o          1 088      -0.715500
     25 O25          3.8460     3.9710     1.0100 o          1 088      -0.715500
     26 C26          3.4680    -0.7830     2.6110 cc         1 088      -0.142100
     27 C27          2.1940    -1.0030     3.0500 cd         1 088      -0.257200
     28 C28          1.4910    -1.6150     1.9690 ca         1 088      -0.077800
     29 C29          0.1690    -2.0260     1.7840 ca         1 088      -0.083000
     30 C30         -1.4280     0.4540     0.0730 ca         1 088      -0.144500
     31 C31         -0.3580     0.5820    -0.8070 ca         1 088       0.149500
     32 CL32        -0.5480     0.0630    -2.4460 cl         1 088      -0.214000
     33 C33          0.8510     1.1380    -0.4260 ca         1 088      -0.095500
     34 C34          0.9950     1.6100     0.8670 ca         1 088      -0.051000
     35 C35         -0.0430     1.4940     1.7760 ca         1 088      -0.095500
     36 C36         -1.2310     0.9100     1.3770 ca         1 088       0.149500
     37 CL37        -2.4750     0.6920     2.5600 cl         1 088      -0.214000
     38 H1          -7.2150    -3.3060    -0.4570 hc         1 088       0.040533
     39 H1A         -6.1280    -2.6780     0.7790 hc         1 088       0.040533
     40 H1B         -7.1140    -1.5700    -0.1830 hc         1 088       0.040533
     41 H2          -4.9150    -3.3830    -1.2950 hc         1 088       0.059700
     42 H3          -6.6910    -2.9290    -2.9390 hc         1 088       0.040533
     43 H3A         -6.5300    -1.1930    -2.6930 hc         1 088       0.040533
     44 H3B         -5.2050    -2.1110    -3.4170 hc         1 088       0.040533
     45 H9          -2.7820    -3.5400    -1.0340 h1         1 088       0.050700
     46 H9A         -1.4780    -2.5250    -1.6050 h1         1 088       0.050700
     47 H12          0.4580    -3.2030    -1.3960 ha         1 088       0.107000
     48 H13          2.7570    -2.4280    -1.1170 ha         1 088       0.116000
     49 H16          5.6240    -0.8470     1.1420 h1         1 088       0.050700
     50 H16A         4.9870    -1.9430    -0.0650 h1         1 088       0.050700
     51 H18          4.6870    -1.0650    -2.2430 ha         1 088       0.085000
     52 H19          4.3260     0.8450    -3.7660 ha         1 088       0.093000
     53 H20          4.0110     3.1160    -2.8530 ha         1 088       0.132000
     54 H22          4.4200     1.5790     1.1080 ha         1 088       0.127000
     55 H26          4.3050    -0.3370     3.1260 h4         1 088       0.213000
     56 H27          1.8060    -0.7500     4.0230 ha         1 088       0.200000
     57 H29         -0.5700    -1.9020     2.5670 ha         1 088       0.126000
     58 H33          1.6690     1.2020    -1.1300 ha         1 088       0.143500
     59 H34          1.9250     2.0720     1.1690 ha         1 088       0.171000
     60 H35          0.0790     1.8370     2.7940 ha         1 088       0.143500
@<TRIPOS>BOND
     1     1     2 1   
     2     1    38 1   
     3     1    39 1   
     4     1    40 1   
     5     2     3 1   
     6     2     4 1   
     7     2    41 1   
     8     3    42 1   
     9     3    43 1   
    10     3    44 1   
    11     4     5 1   
    12     4     8 2   
    13     5     6 1   
    14     6     7 2   
    15     7     8 1   
    16     7    30 1   
    17     8     9 1   
    18     9    10 1   
    19     9    45 1   
    20     9    46 1   
    21    10    11 1   
    22    11    12 ar  
    23    11    29 ar  
    24    12    13 ar  
    25    12    47 1   
    26    13    14 ar  
    27    13    48 1   
    28    14    15 1   
    29    14    28 ar  
    30    15    16 1   
    31    15    26 1   
    32    16    17 1   
    33    16    49 1   
    34    16    50 1   
    35    17    18 ar  
    36    17    22 ar  
    37    18    19 ar  
    38    18    51 1   
    39    19    20 ar  
    40    19    52 1   
    41    20    21 ar  
    42    20    53 1   
    43    21    22 ar  
    44    21    23 1   
    45    22    54 1   
    46    23    24 1   
    47    23    25 1   
    48    26    27 2   
    49    26    55 1   
    50    27    28 1   
    51    27    56 1   
    52    28    29 ar  
    53    29    57 1   
    54    30    31 ar  
    55    30    36 ar  
    56    31    32 1   
    57    31    33 ar  
    58    33    34 ar  
    59    33    58 1   
    60    34    35 ar  
    61    34    59 1   
    62    35    36 ar  
    63    35    60 1   
    64    36    37 1   
@<TRIPOS>SUBSTRUCTURE
     1 088         1 TEMP              0 ****  ****    0 ROOT
