@<TRIPOS>MOLECULE
088
   60    64     1     0     0
SMALL
No Charge or Current Charge


@<TRIPOS>ATOM
      1 C1          -6.2110    -2.3710     0.8910 c3         1 088      -0.085600
      2 C2          -5.5380    -2.4440    -0.4980 c3         1 088      -0.096000
      3 C3          -6.5760    -2.3720    -1.6390 c3         1 088      -0.085600
      4 C4          -4.4680    -1.3890    -0.6570 cc         1 088       0.176300
      5 O5          -4.8030    -0.0680    -0.4880 os         1 088      -0.075700
      6 N6          -3.6240     0.7300    -0.6710 nc         1 088      -0.342300
      7 C7          -2.6730    -0.1470    -0.9380 cd         1 088       0.358500
      8 C8          -3.1390    -1.4810    -0.9500 cd         1 088      -0.214300
      9 C9          -2.3420    -2.7300    -1.2250 c3         1 088       0.247900
     10 O10         -1.6430    -3.1140    -0.0260 os         1 088      -0.358100
     11 C11         -0.3910    -2.6260     0.2830 ca         1 088       0.080100
     12 C12          0.6090    -2.4360    -0.7110 ca         1 088      -0.151000
     13 C13          1.8910    -1.9580    -0.3590 ca         1 088      -0.090000
     14 C14          2.1420    -1.6820     0.9940 ca         1 088      -0.059200
     15 N15          3.2950    -1.2110     1.6150 na         1 088      -0.079700
     16 C16          4.5480    -0.9680     0.8750 c3         1 088       0.132900
     17 C17          4.6220     0.3860     0.1690 ca         1 088      -0.159300
     18 C18          5.1310     0.4630    -1.1400 ca         1 088      -0.120000
     19 C19          5.2250     1.7040    -1.7880 ca         1 088      -0.147000
     20 C20          4.8110     2.8770    -1.1360 ca         1 088      -0.075000
     21 C21          4.2970     2.8250     0.1800 ca         1 088      -0.142600
     22 C22          4.2130     1.5670     0.8240 ca         1 088      -0.077000
     23 C23          3.8470     4.0930     0.8880 c          1 088       0.710600
     24 O24          3.9550     5.1610     0.3010 o          1 088      -0.715500
     25 O25          3.3940     4.0040     2.0200 o          1 088      -0.715500
     26 C26          3.0890    -1.0750     3.0040 cc         1 088      -0.142100
     27 C27          1.7790    -1.4920     3.1960 cd         1 088      -0.257200
     28 C28          1.1790    -1.8770     1.9450 ca         1 088      -0.077800
     29 C29         -0.0980    -2.3590     1.6370 ca         1 088      -0.083000
     30 C30         -1.2970     0.3030    -1.1680 ca         1 088      -0.144500
     31 C31         -0.7250     0.2300    -2.4550 ca         1 088       0.149500
     32 Cl32        -1.6590    -0.3570    -3.8310 cl         1 088      -0.214000
     33 C33          0.5970     0.6540    -2.6710 ca         1 088      -0.095500
     34 C34          1.3600     1.1580    -1.6060 ca         1 088      -0.051000
     35 C35          0.7960     1.2400    -0.3240 ca         1 088      -0.095500
     36 C36         -0.5240     0.8160    -0.1030 ca         1 088       0.149500
     37 Cl37        -1.1790     0.9320     1.5310 cl         1 088      -0.214000
     38 H1          -6.9330    -3.1880     1.0160 hc         1 088       0.040533
     39 H1A         -5.4610    -2.4570     1.6870 hc         1 088       0.040533
     40 H1B         -6.7430    -1.4210     1.0220 hc         1 088       0.040533
     41 H2          -5.0640    -3.4300    -0.5610 hc         1 088       0.059700
     42 H3          -7.3120    -3.1790    -1.5470 hc         1 088       0.040533
     43 H3A         -7.1120    -1.4150    -1.6220 hc         1 088       0.040533
     44 H3B         -6.0830    -2.4710    -2.6140 hc         1 088       0.040533
     45 H9          -3.0320    -3.5300    -1.5200 h1         1 088       0.050700
     46 H9A         -1.6660    -2.5740    -2.0720 h1         1 088       0.050700
     47 H12          0.4150    -2.6720    -1.7520 ha         1 088       0.107000
     48 H13          2.6540    -1.8080    -1.1180 ha         1 088       0.116000
     49 H16          5.3820    -1.0380     1.5840 h1         1 088       0.050700
     50 H16A         4.6820    -1.7760     0.1450 h1         1 088       0.050700
     51 H18          5.4580    -0.4370    -1.6550 ha         1 088       0.085000
     52 H19          5.6200     1.7570    -2.8000 ha         1 088       0.093000
     53 H20          4.8910     3.8280    -1.6590 ha         1 088       0.132000
     54 H22          3.8300     1.5070     1.8400 ha         1 088       0.127000
     55 H26          3.8500    -0.7230     3.6940 h4         1 088       0.213000
     56 H27          1.2790    -1.5220     4.1620 ha         1 088       0.200000
     57 H29         -0.8450    -2.5080     2.4110 ha         1 088       0.126000
     58 H33          1.0280     0.5950    -3.6680 ha         1 088       0.143500
     59 H34          2.3830     1.4830    -1.7750 ha         1 088       0.171000
     60 H35          1.3830     1.6260     0.5050 ha         1 088       0.143500
@<TRIPOS>BOND
     1     1     2 1   
     2     1    38 1   
     3     1    39 1   
     4     1    40 1   
     5     2     3 1   
     6     2     4 1   
     7     2    41 1   
     8     3    42 1   
     9     3    43 1   
    10     3    44 1   
    11     4     5 1   
    12     4     8 2   
    13     5     6 1   
    14     6     7 2   
    15     7     8 1   
    16     7    30 1   
    17     8     9 1   
    18     9    10 1   
    19     9    45 1   
    20     9    46 1   
    21    10    11 1   
    22    11    12 ar  
    23    11    29 ar  
    24    12    13 ar  
    25    12    47 1   
    26    13    14 ar  
    27    13    48 1   
    28    14    15 1   
    29    14    28 ar  
    30    15    16 1   
    31    15    26 1   
    32    16    17 1   
    33    16    49 1   
    34    16    50 1   
    35    17    18 ar  
    36    17    22 ar  
    37    18    19 ar  
    38    18    51 1   
    39    19    20 ar  
    40    19    52 1   
    41    20    21 ar  
    42    20    53 1   
    43    21    22 ar  
    44    21    23 1   
    45    22    54 1   
    46    23    24 1   
    47    23    25 1   
    48    26    27 2   
    49    26    55 1   
    50    27    28 1   
    51    27    56 1   
    52    28    29 ar  
    53    29    57 1   
    54    30    31 ar  
    55    30    36 ar  
    56    31    32 1   
    57    31    33 ar  
    58    33    34 ar  
    59    33    58 1   
    60    34    35 ar  
    61    34    59 1   
    62    35    36 ar  
    63    35    60 1   
    64    36    37 1   
@<TRIPOS>SUBSTRUCTURE
     1 088         1 TEMP              0 ****  ****    0 ROOT
