@<TRIPOS>MOLECULE
08A
   65    69     1     0     0
SMALL
No Charge or Current Charge


@<TRIPOS>ATOM
      1 N            4.7030    -1.2920    -2.6470 nc         1 08A      -0.231400
      2 CA           4.1460    -0.8840    -1.4320 ca         1 08A       0.011400
      3 O           -5.8540     1.9060     0.0730 o          1 08A      -0.610100
      4 CB           3.0660    -1.4400    -0.7110 ca         1 08A      -0.001300
      5 CG           2.6960    -0.8170     0.5230 ca         1 08A      -0.080300
      6 CD1          1.5300    -1.3270     1.3890 c3         1 08A       0.034900
      7 CD2          3.4180     0.3230     0.9750 ca         1 08A      -0.053000
      8 CE1          2.0500    -1.8800     2.7500 c3         1 08A      -0.207400
      9 CZ           0.9260    -2.5950     3.5170 c          1 08A       0.714000
     10 OH           0.6880    -3.7580     3.2300 o          1 08A      -0.731500
     11 C11          0.4350    -0.2490     1.4700 ca         1 08A      -0.023300
     12 C12         -0.5020    -0.1660     0.4230 ca         1 08A      -0.108000
     13 C13         -1.5090     0.8150     0.4210 ca         1 08A      -0.121300
     14 C14         -1.5830     1.7490     1.4800 ca         1 08A      -0.083300
     15 C15         -0.6520     1.6730     2.5440 ca         1 08A      -0.079300
     16 C16          0.3500     0.6830     2.5250 ca         1 08A      -0.075000
     17 C17         -0.7040     2.6460     3.7200 c3         1 08A      -0.041800
     18 C18         -2.6860     2.8180     1.4660 c6         1 08A      -0.051100
     19 C19         -3.2680     3.0420     0.0580 c6         1 08A       0.092000
     20 C2           4.8090     0.2070    -0.9670 ca         1 08A      -0.083200
     21 C20         -2.5070     0.8320    -0.7480 c6         1 08A       0.148300
     22 C22         -5.3860     0.1550    -1.4710 ca         1 08A      -0.133600
     23 C23         -6.4660    -0.6770    -1.1000 ca         1 08A      -0.072000
     24 C24         -6.8610    -1.7480    -1.9200 ca         1 08A      -0.120000
     25 C25         -6.1930    -1.9920    -3.1300 ca         1 08A      -0.099000
     26 C26         -5.1360    -1.1580    -3.5250 ca         1 08A      -0.120000
     27 C27         -4.7380    -0.0860    -2.7060 ca         1 08A      -0.072000
     28 C29          7.9620     1.2220    -0.9410 c3         1 08A      -0.114100
     29 C3           4.4890     0.8500     0.2310 ca         1 08A      -0.142000
     30 C7           2.3400    -2.6710    -1.2560 c3         1 08A      -0.048800
     31 N1           5.7670     0.4580    -1.9000 na         1 08A       0.055600
     32 N2           5.7060    -0.4580    -2.9290 nd         1 08A      -0.193400
     33 N4          -3.6550     1.7590    -0.5690 n          1 08A      -0.391800
     34 O2           0.3110    -1.9690     4.3660 o          1 08A      -0.731500
     35 H1           1.0630    -2.1920     0.9070 hc         1 08A       0.087700
     36 H2           3.1460     0.8050     1.9100 ha         1 08A       0.124000
     37 H3           2.8150    -2.6140     2.4690 hc         1 08A       0.025700
     38 H4           2.4580    -1.0460     3.3300 hc         1 08A       0.025700
     39 H5          -0.4460    -0.8710    -0.4020 ha         1 08A       0.105000
     40 H6           1.0640     0.6480     3.3420 ha         1 08A       0.145000
     41 H7          -0.4200     3.6570     3.4070 hc         1 08A       0.035700
     42 H8          -1.7110     2.6940     4.1520 hc         1 08A       0.035700
     43 H9          -0.0220     2.3490     4.5260 hc         1 08A       0.035700
     44 H10         -3.4910     2.5130     2.1470 hc         1 08A       0.053700
     45 H11         -2.3060     3.7780     1.8390 hc         1 08A       0.053700
     46 H12         -4.1250     3.7270     0.1100 h1         1 08A       0.053200
     47 H13         -2.5080     3.5250    -0.5720 h1         1 08A       0.053200
     48 H14         -1.9700     1.1080    -1.6670 h1         1 08A       0.055200
     49 H15         -2.8720    -0.1950    -0.8810 h1         1 08A       0.055200
     50 H16         -6.9950    -0.5000    -0.1650 ha         1 08A       0.123500
     51 H17         -7.6870    -2.3880    -1.6170 ha         1 08A       0.111500
     52 H18         -6.5000    -2.8200    -3.7660 ha         1 08A       0.108000
     53 H19         -4.6280    -1.3350    -4.4700 ha         1 08A       0.111500
     54 H20         -3.9380     0.5660    -3.0490 ha         1 08A       0.123500
     55 H21          6.2530     2.4520    -1.4630 h1         1 08A       0.059700
     56 H22          7.1040     1.7630    -2.8550 h1         1 08A       0.059700
     57 H23          8.6670     2.0620    -0.9290 hc         1 08A       0.047367
     58 H24          7.6400     1.0280     0.0890 hc         1 08A       0.047367
     59 H25          8.4880     0.3350    -1.3130 hc         1 08A       0.047367
     60 H26          5.0390     1.7210     0.5790 ha         1 08A       0.113000
     61 H27          2.3850    -3.5020    -0.5420 hc         1 08A       0.053033
     62 H28          1.2860    -2.4490    -1.4570 hc         1 08A       0.053033
     63 H29          2.7750    -3.0340    -2.1930 hc         1 08A       0.053033
     64 C21         -4.9980     1.3140    -0.5740 c          1 08A       0.617700
     65 C28          6.7520     1.5500    -1.8380 c3         1 08A       0.094600
@<TRIPOS>BOND
     1     1     2 1   
     2     1    32 2   
     3     2     4 ar  
     4     2    20 ar  
     5     3    64 2   
     6     4     5 ar  
     7     4    30 1   
     8     5     6 1   
     9     5     7 ar  
    10     6     8 1   
    11     6    11 1   
    12     6    35 1   
    13     7    29 ar  
    14     7    36 1   
    15     8     9 1   
    16     8    37 1   
    17     8    38 1   
    18     9    10 1   
    19     9    34 1   
    20    11    12 ar  
    21    11    16 ar  
    22    12    13 ar  
    23    12    39 1   
    24    13    14 ar  
    25    13    21 1   
    26    14    15 ar  
    27    14    18 1   
    28    15    16 ar  
    29    15    17 1   
    30    16    40 1   
    31    17    41 1   
    32    17    42 1   
    33    17    43 1   
    34    18    19 1   
    35    18    44 1   
    36    18    45 1   
    37    19    33 1   
    38    19    46 1   
    39    19    47 1   
    40    20    29 ar  
    41    20    31 1   
    42    21    33 1   
    43    21    48 1   
    44    21    49 1   
    45    22    23 ar  
    46    22    27 ar  
    47    22    64 1   
    48    23    24 ar  
    49    23    50 1   
    50    24    25 ar  
    51    24    51 1   
    52    25    26 ar  
    53    25    52 1   
    54    26    27 ar  
    55    26    53 1   
    56    27    54 1   
    57    28    57 1   
    58    28    58 1   
    59    28    59 1   
    60    28    65 1   
    61    29    60 1   
    62    30    61 1   
    63    30    62 1   
    64    30    63 1   
    65    31    32 1   
    66    31    65 1   
    67    33    64 1   
    68    55    65 1   
    69    56    65 1   
@<TRIPOS>SUBSTRUCTURE
     1 08A         1 TEMP              0 ****  ****    0 ROOT
