@<TRIPOS>MOLECULE
08A
   65    69     1     0     0
SMALL
abcg2


@<TRIPOS>ATOM
      1 N            4.8040    -1.7150    -2.3290 nc         1 08A      -0.231400
      2 CA           4.0950    -1.1520    -1.3070 ca         1 08A       0.011400
      3 O           -5.6750     2.0350    -0.0790 o          1 08A      -0.610100
      4 CB           3.0350    -1.6720    -0.5420 ca         1 08A      -0.001300
      5 CG           2.5150    -0.8360     0.4340 ca         1 08A      -0.080300
      6 CD1          1.4030    -1.3050     1.3530 c3         1 08A       0.034900
      7 CD2          3.0510     0.4610     0.6300 ca         1 08A      -0.053000
      8 CE1          1.9830    -1.7530     2.6920 c3         1 08A      -0.207400
      9 CZ           0.9670    -2.4130     3.6430 c          1 08A       0.714000
     10 OH           0.0290    -3.0450     3.1180 o          1 08A      -0.731500
     11 C11          0.3200    -0.2510     1.4610 ca         1 08A      -0.023300
     12 C12         -0.4670     0.0150     0.3500 ca         1 08A      -0.108000
     13 C13         -1.4610     0.9850     0.3780 ca         1 08A      -0.121300
     14 C14         -1.6780     1.7320     1.5360 ca         1 08A      -0.083300
     15 C15         -0.9070     1.4610     2.6730 ca         1 08A      -0.079300
     16 C16          0.0770     0.4790     2.6190 ca         1 08A      -0.075000
     17 C17         -1.1360     2.2220     3.9470 c3         1 08A      -0.041800
     18 C18         -2.7380     2.8020     1.5690 c6         1 08A      -0.051100
     19 C19         -3.1950     3.1740     0.1680 c6         1 08A       0.092000
     20 C2           4.6000     0.1300    -1.0950 ca         1 08A      -0.083200
     21 C20         -2.2840     1.2020    -0.8730 c6         1 08A       0.148300
     22 C22         -4.9960     0.2960    -1.5100 ca         1 08A      -0.133600
     23 C23         -5.7660    -0.7410    -0.9910 ca         1 08A      -0.072000
     24 C24         -6.0870    -1.8350    -1.7820 ca         1 08A      -0.120000
     25 C25         -5.6680    -1.8850    -3.1060 ca         1 08A      -0.099000
     26 C26         -4.9190    -0.8420    -3.6340 ca         1 08A      -0.120000
     27 C27         -4.5780     0.2430    -2.8380 ca         1 08A      -0.072000
     28 C29          7.6080     1.3720    -1.1820 c3         1 08A      -0.114100
     29 C3           4.0880     0.9760    -0.1110 ca         1 08A      -0.142000
     30 C7           2.5260    -3.0580    -0.8020 c3         1 08A      -0.048800
     31 N1           5.5810     0.2490    -2.0210 na         1 08A       0.055600
     32 N2           5.6770    -0.8700    -2.7290 nd         1 08A      -0.193400
     33 N4          -3.4780     1.9750    -0.5990 n          1 08A      -0.391800
     34 O2           1.1890    -2.2920     4.8650 o          1 08A      -0.731500
     35 H1           0.9300    -2.1830     0.9080 hc         1 08A       0.087700
     36 H2           2.6140     1.0850     1.4010 ha         1 08A       0.124000
     37 H3           2.7690    -2.4900     2.4870 hc         1 08A       0.025700
     38 H4           2.4900    -0.9230     3.1930 hc         1 08A       0.025700
     39 H5          -0.3080    -0.5520    -0.5630 ha         1 08A       0.105000
     40 H6           0.6520     0.2790     3.5160 ha         1 08A       0.145000
     41 H7          -0.9180     3.2860     3.8280 hc         1 08A       0.035700
     42 H8          -2.1740     2.1500     4.2790 hc         1 08A       0.035700
     43 H9          -0.5040     1.8450     4.7500 hc         1 08A       0.035700
     44 H10         -3.5960     2.4660     2.1600 hc         1 08A       0.053700
     45 H11         -2.3610     3.6980     2.0690 hc         1 08A       0.053700
     46 H12         -4.0710     3.8160     0.1940 h1         1 08A       0.053200
     47 H13         -2.4030     3.7180    -0.3530 h1         1 08A       0.053200
     48 H14         -1.6820     1.7200    -1.6260 h1         1 08A       0.055200
     49 H15         -2.5500     0.2360    -1.2950 h1         1 08A       0.055200
     50 H16         -6.1060    -0.7010     0.0360 ha         1 08A       0.123500
     51 H17         -6.6700    -2.6460    -1.3660 ha         1 08A       0.111500
     52 H18         -5.9290    -2.7330    -3.7250 ha         1 08A       0.108000
     53 H19         -4.5990    -0.8710    -4.6670 ha         1 08A       0.111500
     54 H20         -3.9960     1.0530    -3.2600 ha         1 08A       0.123500
     55 H21          5.9220     2.2750    -2.1940 h1         1 08A       0.059700
     56 H22          6.9050     1.2500    -3.2260 h1         1 08A       0.059700
     57 H23          8.2670     2.2190    -1.3670 hc         1 08A       0.047367
     58 H24          7.2100     1.4720    -0.1730 hc         1 08A       0.047367
     59 H25          8.2040     0.4610    -1.2280 hc         1 08A       0.047367
     60 H26          4.4710     1.9720     0.0660 ha         1 08A       0.113000
     61 H27          2.5540    -3.6730     0.0980 hc         1 08A       0.053033
     62 H28          1.4900    -3.0430    -1.1450 hc         1 08A       0.053033
     63 H29          3.1190    -3.5580    -1.5650 hc         1 08A       0.053033
     64 C21         -4.7390     1.4970    -0.6570 c          1 08A       0.617700
     65 C28          6.5000     1.3510    -2.2200 c3         1 08A       0.094600
@<TRIPOS>BOND
     1     1     2 1   
     2     1    32 2   
     3     2     4 ar  
     4     2    20 ar  
     5     3    64 2   
     6     4     5 ar  
     7     4    30 1   
     8     5     6 1   
     9     5     7 ar  
    10     6     8 1   
    11     6    11 1   
    12     6    35 1   
    13     7    29 ar  
    14     7    36 1   
    15     8     9 1   
    16     8    37 1   
    17     8    38 1   
    18     9    10 1   
    19     9    34 1   
    20    11    12 ar  
    21    11    16 ar  
    22    12    13 ar  
    23    12    39 1   
    24    13    14 ar  
    25    13    21 1   
    26    14    15 ar  
    27    14    18 1   
    28    15    16 ar  
    29    15    17 1   
    30    16    40 1   
    31    17    41 1   
    32    17    42 1   
    33    17    43 1   
    34    18    19 1   
    35    18    44 1   
    36    18    45 1   
    37    19    33 1   
    38    19    46 1   
    39    19    47 1   
    40    20    29 ar  
    41    20    31 1   
    42    21    33 1   
    43    21    48 1   
    44    21    49 1   
    45    22    23 ar  
    46    22    27 ar  
    47    22    64 1   
    48    23    24 ar  
    49    23    50 1   
    50    24    25 ar  
    51    24    51 1   
    52    25    26 ar  
    53    25    52 1   
    54    26    27 ar  
    55    26    53 1   
    56    27    54 1   
    57    28    57 1   
    58    28    58 1   
    59    28    59 1   
    60    28    65 1   
    61    29    60 1   
    62    30    61 1   
    63    30    62 1   
    64    30    63 1   
    65    31    32 1   
    66    31    65 1   
    67    33    64 1   
    68    55    65 1   
    69    56    65 1   
@<TRIPOS>SUBSTRUCTURE
     1 08A         1 TEMP              0 ****  ****    0 ROOT
