@<TRIPOS>MOLECULE
08B
   43    45     1     0     0
SMALL
abcg2


@<TRIPOS>ATOM
      1 C1           4.9160     2.8600     0.3080 c3         1 08B      -0.033800
      2 C2           4.4000     1.4700     0.2220 cc         1 08B      -0.105300
      3 C3           5.0450     0.2770    -0.0380 cd         1 08B      -0.117900
      4 C4           4.1170    -0.7750     0.0480 cd         1 08B      -0.061000
      5 C5           2.9050    -0.1990     0.3540 cc         1 08B      -0.256600
      6 N6           3.1040     1.1530     0.4480 na         1 08B      -0.090000
      7 C8           1.6250    -0.8990     0.5280 c          1 08B       0.642700
      8 O9           1.6040    -2.1170     0.6610 o          1 08B      -0.589100
      9 N10          0.5120    -0.1380     0.5420 ns         1 08B      -0.505900
     10 C11         -0.8180    -0.6940     0.6740 c6         1 08B       0.109700
     11 C12         -1.7480     0.3140     1.3390 c6         1 08B      -0.105900
     12 C13         -3.1480    -0.2680     1.4310 c6         1 08B       0.225300
     13 N14         -3.6500    -0.6540     0.1190 nh         1 08B      -0.765300
     14 C15         -2.8170    -1.6610    -0.5200 c6         1 08B       0.225300
     15 C16         -1.3970    -1.1320    -0.6700 c6         1 08B      -0.105900
     16 C17         -4.9640    -0.5590    -0.2080 ca         1 08B       0.690900
     17 C18         -5.7910     0.5440     0.1290 ca         1 08B      -0.300200
     18 C19         -7.1610     0.4680    -0.0690 ca         1 08B       0.017000
     19 C20         -7.6930    -0.6390    -0.7000 ca         1 08B      -0.228000
     20 C21         -6.7990    -1.6070    -1.1330 ca         1 08B       0.430900
     21 N22         -5.5040    -1.5780    -0.8780 nb         1 08B      -0.758000
     22 N23         -5.2690     1.8250     0.5470 no         1 08B       0.704200
     23 O24         -5.9490     2.5020     1.2870 o          1 08B      -0.403500
     24 O25         -4.2050     2.1830     0.0970 o          1 08B      -0.403500
     25 BR           6.8630     0.1120    -0.4300 br         1 08B      -0.069100
     26 H1           5.3870     3.0500     1.2740 hc         1 08B       0.056367
     27 H2           5.6620     3.0480    -0.4630 hc         1 08B       0.056367
     28 H3           4.1140     3.5850     0.1810 hc         1 08B       0.056367
     29 H4           4.3030    -1.8250    -0.1120 ha         1 08B       0.161000
     30 H5           2.4160     1.8340     0.7300 hn         1 08B       0.345000
     31 H6           0.5650     0.8200     0.2340 hn         1 08B       0.304500
     32 H7          -0.7450    -1.5700     1.3240 h1         1 08B       0.079700
     33 H8          -1.3910     0.5520     2.3420 hc         1 08B       0.064200
     34 H9          -1.7740     1.2440     0.7650 hc         1 08B       0.064200
     35 H10         -3.1190    -1.1670     2.0620 h1         1 08B       0.054950
     36 H11         -3.8190     0.4200     1.9350 h1         1 08B       0.054950
     37 H12         -2.8120    -2.5870     0.0710 h1         1 08B       0.054950
     38 H13         -3.2280    -1.9070    -1.4950 h1         1 08B       0.054950
     39 H14         -1.3960    -0.2830    -1.3600 hc         1 08B       0.064200
     40 H15         -0.7730    -1.9140    -1.1090 hc         1 08B       0.064200
     41 H16         -7.7990     1.2930     0.2150 ha         1 08B       0.149000
     42 H17         -8.7520    -0.7270    -0.8910 ha         1 08B       0.139000
     43 H18         -7.1510    -2.4580    -1.7060 h4         1 08B       0.027100
@<TRIPOS>BOND
     1     1     2 1   
     2     1    26 1   
     3     1    27 1   
     4     1    28 1   
     5     2     3 2   
     6     2     6 1   
     7     3     4 1   
     8     3    25 1   
     9     4     5 2   
    10     4    29 1   
    11     5     6 1   
    12     5     7 1   
    13     6    30 1   
    14     7     8 2   
    15     7     9 1   
    16     9    10 1   
    17     9    31 1   
    18    10    11 1   
    19    10    15 1   
    20    10    32 1   
    21    11    12 1   
    22    11    33 1   
    23    11    34 1   
    24    12    13 1   
    25    12    35 1   
    26    12    36 1   
    27    13    14 1   
    28    13    16 1   
    29    14    15 1   
    30    14    37 1   
    31    14    38 1   
    32    15    39 1   
    33    15    40 1   
    34    16    17 ar  
    35    16    21 ar  
    36    17    18 ar  
    37    17    22 1   
    38    18    19 ar  
    39    18    41 1   
    40    19    20 ar  
    41    19    42 1   
    42    20    21 ar  
    43    20    43 1   
    44    22    23 1   
    45    22    24 1   
@<TRIPOS>SUBSTRUCTURE
     1 08B         1 TEMP              0 ****  ****    0 ROOT
