@<TRIPOS>MOLECULE
08B
   43    45     1     0     0
SMALL
No Charge or Current Charge


@<TRIPOS>ATOM
      1 C1           5.0420     2.9320     0.4460 c3         1 08B      -0.033800
      2 C2           4.4700     1.5440     0.3350 cc         1 08B      -0.105300
      3 C3           5.1120     0.3570     0.1100 cd         1 08B      -0.117900
      4 C4           4.1590    -0.6800     0.0890 cd         1 08B      -0.061000
      5 C5           2.9100    -0.1530     0.3000 cc         1 08B      -0.256600
      6 N6           3.1130     1.2300     0.4520 na         1 08B      -0.090000
      7 C8           1.6790    -0.9760     0.3370 c          1 08B       0.642700
      8 O9           1.6680    -2.1890     0.1840 o          1 08B      -0.589100
      9 N10          0.5290    -0.2550     0.5630 ns         1 08B      -0.505900
     10 C11         -0.8270    -0.8140     0.6290 c6         1 08B       0.109700
     11 C12         -1.7580     0.1260     1.4290 c6         1 08B      -0.105900
     12 C13         -3.2020    -0.4230     1.4640 c6         1 08B       0.225300
     13 N14         -3.7100    -0.6310     0.0850 nh         1 08B      -0.765300
     14 C15         -2.8600    -1.5370    -0.7320 c6         1 08B       0.225300
     15 C16         -1.4090    -1.0080    -0.7910 c6         1 08B      -0.105900
     16 C17         -5.0890    -0.5710    -0.1420 ca         1 08B       0.690900
     17 C18         -5.8130     0.6230    -0.1120 ca         1 08B      -0.300200
     18 C19         -7.2090     0.5900    -0.2710 ca         1 08B       0.017000
     19 C20         -7.8090    -0.6600    -0.4730 ca         1 08B      -0.228000
     20 C21         -7.0040    -1.8070    -0.5040 ca         1 08B       0.430900
     21 N22         -5.6660    -1.7690    -0.3360 nb         1 08B      -0.758000
     22 N23         -5.1180     1.8990     0.0720 no         1 08B       0.704200
     23 O24         -5.6090     2.6940     0.8820 o          1 08B      -0.403500
     24 O25         -4.2640     2.2140    -0.7640 o          1 08B      -0.403500
     25 Br           6.9670     0.1210    -0.1340 br         1 08B      -0.069100
     26 H1           5.7620     2.9920     1.2700 hc         1 08B       0.056367
     27 H2           5.5620     3.2130    -0.4780 hc         1 08B       0.056367
     28 H3           4.2580     3.6760     0.6300 hc         1 08B       0.056367
     29 H4           4.3810    -1.7320    -0.0710 ha         1 08B       0.161000
     30 H5           2.3870     1.9190     0.6230 hn         1 08B       0.345000
     31 H6           0.6350     0.7420     0.6780 hn         1 08B       0.304500
     32 H7          -0.7820    -1.7900     1.1380 h1         1 08B       0.079700
     33 H8          -1.3850     0.2400     2.4550 hc         1 08B       0.064200
     34 H9          -1.7610     1.1280     0.9790 hc         1 08B       0.064200
     35 H10         -3.2200    -1.3720     2.0190 h1         1 08B       0.054950
     36 H11         -3.8390     0.2870     2.0120 h1         1 08B       0.054950
     37 H12         -2.8640    -2.5510    -0.3050 h1         1 08B       0.054950
     38 H13         -3.2510    -1.6080    -1.7590 h1         1 08B       0.054950
     39 H14         -1.3920    -0.0550    -1.3380 hc         1 08B       0.064200
     40 H15         -0.7880    -1.7100    -1.3630 hc         1 08B       0.064200
     41 H16         -7.8090     1.5000    -0.2520 ha         1 08B       0.149000
     42 H17         -8.8830    -0.7470    -0.6090 ha         1 08B       0.139000
     43 H18         -7.4470    -2.7900    -0.6610 h4         1 08B       0.027100
@<TRIPOS>BOND
     1     1     2 1   
     2     1    26 1   
     3     1    27 1   
     4     1    28 1   
     5     2     3 2   
     6     2     6 1   
     7     3     4 1   
     8     3    25 1   
     9     4     5 2   
    10     4    29 1   
    11     5     6 1   
    12     5     7 1   
    13     6    30 1   
    14     7     8 2   
    15     7     9 1   
    16     9    10 1   
    17     9    31 1   
    18    10    11 1   
    19    10    15 1   
    20    10    32 1   
    21    11    12 1   
    22    11    33 1   
    23    11    34 1   
    24    12    13 1   
    25    12    35 1   
    26    12    36 1   
    27    13    14 1   
    28    13    16 1   
    29    14    15 1   
    30    14    37 1   
    31    14    38 1   
    32    15    39 1   
    33    15    40 1   
    34    16    17 ar  
    35    16    21 ar  
    36    17    18 ar  
    37    17    22 1   
    38    18    19 ar  
    39    18    41 1   
    40    19    20 ar  
    41    19    42 1   
    42    20    21 ar  
    43    20    43 1   
    44    22    23 1   
    45    22    24 1   
@<TRIPOS>SUBSTRUCTURE
     1 08B         1 TEMP              0 ****  ****    0 ROOT
