@<TRIPOS>MOLECULE
08C
   31    33     1     0     0
SMALL
abcg2


@<TRIPOS>ATOM
      1 O1          -2.5090    -2.7450    -0.3460 o          1 08C      -0.541000
      2 C13         -2.1080    -1.6040    -0.2040 c          1 08C       0.578600
      3 N1          -0.7600    -1.3210    -0.1940 ns         1 08C      -0.428400
      4 C6          -0.2280    -0.0720    -0.0350 cc         1 08C       0.573500
      5 C3           1.2360     0.0530    -0.0360 ca         1 08C      -0.197900
      6 C4           1.8140     1.2970    -0.3140 ca         1 08C      -0.032500
      7 C5           3.1810     1.4560    -0.3330 ca         1 08C      -0.184000
      8 C            4.0230     0.3710    -0.0630 ca         1 08C       0.169100
      9 O            5.3380     0.6140    -0.1080 os         1 08C      -0.335100
     10 C1           3.4600    -0.8700     0.2310 ca         1 08C      -0.184000
     11 C2           2.0820    -1.0170     0.2400 ca         1 08C      -0.032500
     12 N           -0.9600     0.9790     0.1040 nd         1 08C      -0.639100
     13 C7          -2.3230     0.8290     0.0920 ca         1 08C       0.194400
     14 C8          -2.9450    -0.4230    -0.0460 ca         1 08C      -0.207600
     15 C12         -3.1280     1.9700     0.2300 ca         1 08C      -0.107000
     16 C11         -4.5010     1.8530     0.2270 ca         1 08C      -0.074000
     17 C10         -5.1140     0.6020     0.0880 ca         1 08C      -0.136000
     18 C9          -4.3390    -0.5280    -0.0480 ca         1 08C      -0.039000
     19 CAA          6.2370    -0.4560     0.1300 c3         1 08C       0.146900
     20 H1          -0.1430    -2.1060    -0.3550 hn         1 08C       0.329500
     21 H4           1.1770     2.1440    -0.5290 ha         1 08C       0.126500
     22 H2           1.6910    -1.9930     0.4970 ha         1 08C       0.126500
     23 H5           3.6130     2.4210    -0.5630 ha         1 08C       0.128000
     24 HA           4.0730    -1.7310     0.4580 ha         1 08C       0.128000
     25 HAA1         6.1280    -0.8600     1.1390 h1         1 08C       0.045033
     26 HAA2         6.1040    -1.2640    -0.5930 h1         1 08C       0.045033
     27 HAA3         7.2370    -0.0450     0.0220 h1         1 08C       0.045033
     28 H12         -2.6510     2.9350     0.3390 ha         1 08C       0.132000
     29 H9          -4.8010    -1.5000    -0.1600 ha         1 08C       0.134000
     30 H11         -5.1130     2.7390     0.3350 ha         1 08C       0.116000
     31 H10         -6.1920     0.5260     0.0880 ha         1 08C       0.119000
@<TRIPOS>BOND
     1     1     2 2   
     2     2     3 1   
     3     2    14 1   
     4     3     4 1   
     5     3    20 1   
     6     4     5 1   
     7     4    12 2   
     8     5     6 ar  
     9     5    11 ar  
    10     6     7 ar  
    11     6    21 1   
    12     7     8 ar  
    13     7    23 1   
    14     8     9 1   
    15     8    10 ar  
    16     9    19 1   
    17    10    11 ar  
    18    10    24 1   
    19    11    22 1   
    20    12    13 1   
    21    13    14 ar  
    22    13    15 ar  
    23    14    18 ar  
    24    15    16 ar  
    25    15    28 1   
    26    16    17 ar  
    27    16    30 1   
    28    17    18 ar  
    29    17    31 1   
    30    18    29 1   
    31    19    25 1   
    32    19    26 1   
    33    19    27 1   
@<TRIPOS>SUBSTRUCTURE
     1 08C         1 TEMP              0 ****  ****    0 ROOT
