@<TRIPOS>MOLECULE
08C
   31    33     1     0     0
SMALL
No Charge or Current Charge


@<TRIPOS>ATOM
      1 O1          -2.4650    -2.7040    -0.5250 o          1 08C      -0.541000
      2 C13         -2.0700    -1.5660    -0.3230 c          1 08C       0.578600
      3 N1          -0.7560    -1.2590    -0.3090 ns         1 08C      -0.428400
      4 C6          -0.2420    -0.0100    -0.0870 cc         1 08C       0.573500
      5 C3           1.2260     0.0950    -0.1250 ca         1 08C      -0.197900
      6 C4           1.8440     1.3120    -0.4970 ca         1 08C      -0.032500
      7 C5           3.2440     1.4320    -0.5010 ca         1 08C      -0.184000
      8 C            4.0540     0.3550    -0.1180 ca         1 08C       0.169100
      9 O            5.4220     0.5350    -0.1410 os         1 08C      -0.335100
     10 C1           3.4510    -0.8540     0.2830 ca         1 08C      -0.184000
     11 C2           2.0500    -0.9800     0.2870 ca         1 08C      -0.032500
     12 N           -0.9860     1.0800     0.1170 nd         1 08C      -0.639100
     13 C7          -2.3730     0.8550     0.1220 ca         1 08C       0.194400
     14 C8          -2.9600    -0.4080    -0.0810 ca         1 08C      -0.207600
     15 C12         -3.2100     1.9640     0.3450 ca         1 08C      -0.107000
     16 C11         -4.6080     1.8220     0.3670 ca         1 08C      -0.074000
     17 C10         -5.1850     0.5590     0.1640 ca         1 08C      -0.136000
     18 C9          -4.3640    -0.5570    -0.0610 ca         1 08C      -0.039000
     19 CAA          6.3400    -0.5070     0.2350 c3         1 08C       0.146900
     20 H1          -0.1230    -2.0190    -0.4980 hn         1 08C       0.329500
     21 H4           1.2420     2.1670    -0.7970 ha         1 08C       0.126500
     22 H2           1.6170    -1.9180     0.6280 ha         1 08C       0.126500
     23 H5           3.7040     2.3700    -0.8010 ha         1 08C       0.128000
     24 HA           4.0490    -1.7030     0.6010 ha         1 08C       0.128000
     25 HAA1         6.1790    -0.8120     1.2760 h1         1 08C       0.045033
     26 HAA2         6.2200    -1.3850    -0.4130 h1         1 08C       0.045033
     27 HAA3         7.3740    -0.1540     0.1410 h1         1 08C       0.045033
     28 H12         -2.7700     2.9450     0.5030 ha         1 08C       0.132000
     29 H9          -4.8180    -1.5340    -0.2190 ha         1 08C       0.134000
     30 H11         -5.2410     2.6890     0.5410 ha         1 08C       0.116000
     31 H10         -6.2670     0.4440     0.1800 ha         1 08C       0.119000
@<TRIPOS>BOND
     1     1     2 2   
     2     2     3 1   
     3     2    14 1   
     4     3     4 1   
     5     3    20 1   
     6     4     5 1   
     7     4    12 2   
     8     5     6 ar  
     9     5    11 ar  
    10     6     7 ar  
    11     6    21 1   
    12     7     8 ar  
    13     7    23 1   
    14     8     9 1   
    15     8    10 ar  
    16     9    19 1   
    17    10    11 ar  
    18    10    24 1   
    19    11    22 1   
    20    12    13 1   
    21    13    14 ar  
    22    13    15 ar  
    23    14    18 ar  
    24    15    16 ar  
    25    15    28 1   
    26    16    17 ar  
    27    16    30 1   
    28    17    18 ar  
    29    17    31 1   
    30    18    29 1   
    31    19    25 1   
    32    19    26 1   
    33    19    27 1   
@<TRIPOS>SUBSTRUCTURE
     1 08C         1 TEMP              0 ****  ****    0 ROOT
