@<TRIPOS>MOLECULE
08D
   28    29     1     0     0
SMALL
bcc


@<TRIPOS>ATOM
      1 O12          0.1040     2.0460    -1.7860 o          1 08D      -0.596300
      2 S10         -0.2390     1.9170    -0.3850 sy         1 08D       1.333200
      3 O11         -0.7440     3.0640     0.3500 o          1 08D      -0.596300
      4 C4          -1.3300     0.5700    -0.1810 ca         1 08D      -0.389500
      5 C3          -2.0830     0.4720     0.9900 ca         1 08D       0.032000
      6 C2          -2.9370    -0.5910     1.1720 ca         1 08D      -0.242500
      7 C5          -1.4400    -0.4090    -1.1650 ca         1 08D       0.032000
      8 C6          -2.2940    -1.4740    -0.9830 ca         1 08D      -0.242500
      9 C1          -3.0640    -1.5910     0.1890 ca         1 08D       0.248600
     10 N7          -3.9320    -2.6150     0.3500 nv         1 08D      -0.851200
     11 N13          1.1660     1.5230     0.4380 nu         1 08D      -0.797800
     12 C15          1.9280     0.4070     0.1620 cc         1 08D       0.589200
     13 N19          1.8450    -0.2420    -0.9650 nd         1 08D      -0.406300
     14 O18          2.7520    -1.2630    -0.8590 os         1 08D      -0.111100
     15 C17          3.3700    -1.2100     0.3230 cd         1 08D       0.317000
     16 C16          2.8910    -0.1630     1.0340 cc         1 08D      -0.425600
     17 C20          4.3900    -2.2400     0.6180 c3         1 08D      -0.139400
     18 H1          -2.0100     1.2250     1.7630 ha         1 08D       0.155000
     19 H2          -3.5220    -0.6540     2.0810 ha         1 08D       0.135000
     20 H3          -0.8610    -0.3470    -2.0760 ha         1 08D       0.155000
     21 H4          -2.3790    -2.2280    -1.7550 ha         1 08D       0.135000
     22 H5          -3.8580    -3.4230    -0.2440 hn         1 08D       0.424300
     23 H6          -4.3340    -2.7830     1.2570 hn         1 08D       0.424300
     24 H7           1.1900     1.8520     1.3950 hn         1 08D       0.453800
     25 H8           3.1690     0.1580     2.0230 ha         1 08D       0.173000
     26 H9           5.1810    -2.2380    -0.1330 hc         1 08D       0.064367
     27 H10          4.8380    -2.0510     1.5900 hc         1 08D       0.064367
     28 H11          3.9480    -3.2370     0.6320 hc         1 08D       0.064367
@<TRIPOS>BOND
     1     1     2 2   
     2     2     3 2   
     3     2     4 1   
     4     2    11 1   
     5     4     5 ar  
     6     4     7 ar  
     7     5     6 ar  
     8     5    18 1   
     9     6     9 ar  
    10     6    19 1   
    11     7     8 ar  
    12     7    20 1   
    13     8     9 ar  
    14     8    21 1   
    15     9    10 1   
    16    10    22 1   
    17    10    23 1   
    18    11    12 1   
    19    11    24 1   
    20    12    13 2   
    21    12    16 1   
    22    13    14 1   
    23    14    15 1   
    24    15    16 2   
    25    15    17 1   
    26    16    25 1   
    27    17    26 1   
    28    17    27 1   
    29    17    28 1   
@<TRIPOS>SUBSTRUCTURE
     1 08D         1 TEMP              0 ****  ****    0 ROOT
