@<TRIPOS>MOLECULE
08D
   28    29     1     0     0
SMALL
No Charge or Current Charge


@<TRIPOS>ATOM
      1 O12         -0.1200     2.4450    -1.8760 o          1 08D      -0.525500
      2 S10         -0.2390     2.1420    -0.4470 sy         1 08D       1.191600
      3 O11         -0.6240     3.1520     0.5400 o          1 08D      -0.525500
      4 C4          -1.2080     0.6550    -0.1930 ca         1 08D      -0.389500
      5 C3          -1.6860     0.3420     1.0940 ca         1 08D       0.050000
      6 C2          -2.4350    -0.8290     1.2920 ca         1 08D      -0.224500
      7 C5          -1.4830    -0.2040    -1.2750 ca         1 08D       0.050000
      8 C6          -2.2340    -1.3710    -1.0630 ca         1 08D      -0.224500
      9 C1          -2.7060    -1.6800     0.2160 ca         1 08D       0.387000
     10 N7          -3.4340    -2.8170     0.4150 nv         1 08D      -1.100000
     11 N13          1.3070     1.7510     0.0310 nu         1 08D      -0.853000
     12 C15          1.8530     0.5280    -0.1470 cc         1 08D       0.523900
     13 N19          1.8280    -0.1430    -1.2780 nd         1 08D      -0.406300
     14 O18          2.5600    -1.3450    -0.9570 os         1 08D      -0.066700
     15 C17          2.9680    -1.2630     0.3510 cd         1 08D       0.207300
     16 C16          2.5470    -0.0940     0.8900 cc         1 08D      -0.277000
     17 C20          3.7650    -2.3850     0.9500 c3         1 08D      -0.139400
     18 H1          -1.4800     0.9960     1.9420 ha         1 08D       0.137000
     19 H2          -2.8030    -1.0690     2.2850 ha         1 08D       0.117000
     20 H3          -1.1150     0.0220    -2.2760 ha         1 08D       0.137000
     21 H4          -2.4440    -2.0330    -1.8980 ha         1 08D       0.117000
     22 H5          -3.4560    -3.5220    -0.3180 hn         1 08D       0.479500
     23 H6          -3.6030    -3.1370     1.3670 hn         1 08D       0.479500
     24 H7           1.3630     2.0860     0.9790 hn         1 08D       0.509000
     25 H8           2.7060     0.2810     1.8930 ha         1 08D       0.155000
     26 H9           4.7040    -2.5310     0.4040 hc         1 08D       0.064367
     27 H10          4.0120    -2.1770     1.9980 hc         1 08D       0.064367
     28 H11          3.2030    -3.3250     0.9150 hc         1 08D       0.064367
@<TRIPOS>BOND
     1     1     2 2   
     2     2     3 2   
     3     2     4 1   
     4     2    11 1   
     5     4     5 ar  
     6     4     7 ar  
     7     5     6 ar  
     8     5    18 1   
     9     6     9 ar  
    10     6    19 1   
    11     7     8 ar  
    12     7    20 1   
    13     8     9 ar  
    14     8    21 1   
    15     9    10 1   
    16    10    22 1   
    17    10    23 1   
    18    11    12 1   
    19    11    24 1   
    20    12    13 2   
    21    12    16 1   
    22    13    14 1   
    23    14    15 1   
    24    15    16 2   
    25    15    17 1   
    26    16    25 1   
    27    17    26 1   
    28    17    27 1   
    29    17    28 1   
@<TRIPOS>SUBSTRUCTURE
     1 08D         1 TEMP              0 ****  ****    0 ROOT
