@<TRIPOS>MOLECULE
08E
   42    45     1     0     0
SMALL
No Charge or Current Charge


@<TRIPOS>ATOM
      1 C10          0.3250     2.6910     0.0530 ca         1 08E      -0.108000
      2 C9          -0.5360     3.4570    -0.7570 ca         1 08E      -0.125000
      3 C21          4.4770     0.7270     1.5700 ca         1 08E      -0.212000
      4 C2          -1.9920     1.5170    -1.0720 ca         1 08E      -0.070000
      5 C25          3.2230     0.2560    -0.4190 ca         1 08E      -0.185000
      6 C22          5.6510     0.5680     0.8110 ca         1 08E       0.363900
      7 C4          -1.0890     0.7580    -0.3030 ca         1 08E      -0.064800
      8 C8          -1.1320    -0.6190     0.1370 cc         1 08E      -0.137200
      9 C20          3.2210     0.5680     0.9560 ca         1 08E      -0.029300
     10 C5           0.0080     1.3380     0.2750 ca         1 08E      -0.066200
     11 C3          -1.6960     2.8730    -1.3060 ca         1 08E       0.088000
     12 C7           0.0270    -0.8350     0.9140 cd         1 08E      -0.025300
     13 C24          4.4520     0.1240    -1.0740 ca         1 08E       0.581900
     14 C18         -3.7780    -2.5470    -1.7250 cd         1 08E      -0.284000
     15 C17         -2.7500    -1.5890    -1.4000 cd         1 08E      -0.140000
     16 C19         -4.1750    -3.4660    -0.7800 cc         1 08E      -0.066400
     17 C1          -2.1610    -1.6090    -0.1410 cc         1 08E      -0.038200
     18 C15         -2.6360    -2.5710     0.9080 c          1 08E       0.565200
     19 C11          0.5950    -2.1780     1.3270 c          1 08E       0.732200
     20 N23          5.6410     0.2670    -0.5060 nb         1 08E      -0.758000
     21 N6           0.6800     0.4220     1.0740 na         1 08E      -0.060700
     22 N16         -3.6030    -3.4490     0.4780 ns         1 08E      -0.371100
     23 N27          4.5780    -0.1770    -2.3700 nv         1 08E      -1.054900
     24 O28         -2.2940    -2.5670     2.0850 o          1 08E      -0.538000
     25 O13          0.1970    -3.1990     0.7800 o          1 08E      -0.699000
     26 O14          1.5390    -2.2070     2.1050 o          1 08E      -0.699000
     27 Cl2         -2.7890     3.8520    -2.2770 cl         1 08E      -0.261000
     28 H1           1.2050     3.1500     0.4940 ha         1 08E       0.105000
     29 H2          -0.3170     4.5060    -0.9420 ha         1 08E       0.107000
     30 H4          -2.9090     1.0930    -1.4670 ha         1 08E       0.121000
     31 H6           6.6300     0.6870     1.2740 h4         1 08E       0.000100
     32 H7          -4.2270    -2.5570    -2.7170 ha         1 08E       0.179000
     33 H8          -2.4000    -0.9070    -2.1680 ha         1 08E       0.182000
     34 H9          -4.9300    -4.2380    -0.9110 h4         1 08E       0.176000
     35 H13          3.7960    -0.6320    -2.8280 hn         1 08E       0.465000
     36 H14          5.5060    -0.4580    -2.6620 hn         1 08E       0.465000
     37 H10         -3.9230    -4.1050     1.1800 hn         1 08E       0.308500
     38 C12          1.9410     0.7440     1.7780 c3         1 08E       0.109900
     39 H3           4.5510     0.9710     2.6260 ha         1 08E       0.113000
     40 H11          2.0070     0.1300     2.6830 h1         1 08E       0.085700
     41 H12          1.8900     1.7810     2.1280 h1         1 08E       0.085700
     42 H5           2.3030     0.1200    -0.9770 ha         1 08E       0.159000
@<TRIPOS>BOND
     1     1     2 ar  
     2     1    10 ar  
     3     1    28 1   
     4     2    11 ar  
     5     2    29 1   
     6     3     6 ar  
     7     3     9 ar  
     8     3    39 1   
     9     4     7 ar  
    10     4    11 ar  
    11     4    30 1   
    12     5     9 ar  
    13     5    13 ar  
    14     5    42 1   
    15     6    20 ar  
    16     6    31 1   
    17     7     8 1   
    18     7    10 ar  
    19     8    12 2   
    20     8    17 1   
    21     9    38 1   
    22    10    21 1   
    23    11    27 1   
    24    12    19 1   
    25    12    21 1   
    26    13    20 ar  
    27    13    23 1   
    28    14    15 1   
    29    14    16 2   
    30    14    32 1   
    31    15    17 2   
    32    15    33 1   
    33    16    22 1   
    34    16    34 1   
    35    17    18 1   
    36    18    22 1   
    37    18    24 2   
    38    19    25 1   
    39    19    26 1   
    40    21    38 1   
    41    22    37 1   
    42    23    35 1   
    43    23    36 1   
    44    38    40 1   
    45    38    41 1   
@<TRIPOS>SUBSTRUCTURE
     1 08E         1 TEMP              0 ****  ****    0 ROOT
