@<TRIPOS>MOLECULE
08E
   42    45     1     0     0
SMALL
abcg2


@<TRIPOS>ATOM
      1 C10          0.3490     2.7130     0.7140 ca         1 08E      -0.108000
      2 C9          -0.5550     3.5800     0.1320 ca         1 08E      -0.125000
      3 C21          3.7850     1.7000     0.4080 ca         1 08E      -0.212000
      4 C2          -1.9930     1.7360    -0.5490 ca         1 08E      -0.070000
      5 C25          3.5510    -0.6410     0.0130 ca         1 08E      -0.185000
      6 C22          4.7510     1.7080    -0.5810 ca         1 08E       0.363900
      7 C4          -1.0780     0.8480     0.0270 ca         1 08E      -0.064800
      8 C8          -1.0390    -0.5730     0.1560 cc         1 08E      -0.137200
      9 C20          3.1650     0.4870     0.7110 ca         1 08E      -0.029300
     10 C5           0.0750     1.3480     0.6650 ca         1 08E      -0.066200
     11 C3          -1.7100     3.0820    -0.4860 ca         1 08E       0.088000
     12 C7           0.1000    -0.8800     0.8620 cd         1 08E      -0.025300
     13 C24          4.5380    -0.5270    -0.9810 ca         1 08E       0.581900
     14 C18         -3.4940    -2.3550    -2.1020 cd         1 08E      -0.284000
     15 C17         -2.4810    -1.4880    -1.6270 cd         1 08E      -0.140000
     16 C19         -4.0510    -3.2190    -1.2200 cc         1 08E      -0.066400
     17 C1          -2.0630    -1.4970    -0.3270 cc         1 08E      -0.038200
     18 C15         -2.6950    -2.3950     0.6250 c          1 08E       0.565200
     19 C11          0.5590    -2.2660     1.2570 c          1 08E       0.732200
     20 N23          5.1250     0.6340    -1.2670 nb         1 08E      -0.758000
     21 N6           0.7650     0.2840     1.1810 na         1 08E      -0.060700
     22 N16         -3.6520    -3.2210     0.0730 ns         1 08E      -0.371100
     23 N27          4.9100    -1.6100    -1.7230 nv         1 08E      -1.054900
     24 O28         -2.4560    -2.4470     1.8270 o          1 08E      -0.538000
     25 O13          0.2690    -3.1650     0.4540 o          1 08E      -0.699000
     26 O14          1.1670    -2.3790     2.3400 o          1 08E      -0.699000
     27 CL2         -2.8230     4.2180    -1.1940 cl         1 08E      -0.261000
     28 H1           1.2320     3.1090     1.1950 ha         1 08E       0.105000
     29 H2          -0.3700     4.6450     0.1570 ha         1 08E       0.107000
     30 H4          -2.8960     1.3770    -1.0260 ha         1 08E       0.121000
     31 H6           5.2560     2.6340    -0.8350 h4         1 08E       0.000100
     32 H7          -3.8080    -2.3440    -3.1340 ha         1 08E       0.179000
     33 H8          -2.0100    -0.8060    -2.3250 ha         1 08E       0.182000
     34 H9          -4.8220    -3.9300    -1.4790 h4         1 08E       0.176000
     35 H13          4.7240    -2.5220    -1.3420 hn         1 08E       0.465000
     36 H14          5.7920    -1.5380    -2.2030 hn         1 08E       0.465000
     37 H10         -4.1030    -3.8640     0.7100 hn         1 08E       0.308500
     38 C12          2.0880     0.4050     1.7640 c3         1 08E       0.109900
     39 H3           3.5330     2.6110     0.9330 ha         1 08E       0.113000
     40 H11          2.2440    -0.4510     2.4130 h1         1 08E       0.085700
     41 H12          2.1070     1.2980     2.3900 h1         1 08E       0.085700
     42 H5           3.1170    -1.6090     0.2280 ha         1 08E       0.159000
@<TRIPOS>BOND
     1     1     2 ar  
     2     1    10 ar  
     3     1    28 1   
     4     2    11 ar  
     5     2    29 1   
     6     3     6 ar  
     7     3     9 ar  
     8     3    39 1   
     9     4     7 ar  
    10     4    11 ar  
    11     4    30 1   
    12     5     9 ar  
    13     5    13 ar  
    14     5    42 1   
    15     6    20 ar  
    16     6    31 1   
    17     7     8 1   
    18     7    10 ar  
    19     8    12 2   
    20     8    17 1   
    21     9    38 1   
    22    10    21 1   
    23    11    27 1   
    24    12    19 1   
    25    12    21 1   
    26    13    20 ar  
    27    13    23 1   
    28    14    15 1   
    29    14    16 2   
    30    14    32 1   
    31    15    17 2   
    32    15    33 1   
    33    16    22 1   
    34    16    34 1   
    35    17    18 1   
    36    18    22 1   
    37    18    24 2   
    38    19    25 1   
    39    19    26 1   
    40    21    38 1   
    41    22    37 1   
    42    23    35 1   
    43    23    36 1   
    44    38    40 1   
    45    38    41 1   
@<TRIPOS>SUBSTRUCTURE
     1 08E         1 TEMP              0 ****  ****    0 ROOT
