@<TRIPOS>MOLECULE
08F
   65    69     1     0     0
SMALL
No Charge or Current Charge


@<TRIPOS>ATOM
      1 S1          -6.2780    -1.6120    -1.3910 s6         1 08F       1.187100
      2 O1          -6.4980    -1.4340    -2.8260 o          1 08F      -0.525500
      3 O2          -6.1210    -2.9510    -0.8210 o          1 08F      -0.525500
      4 O3          -1.3370     2.8070     2.7420 o          1 08F      -0.535000
      5 O4          -1.6190     3.0930     0.2150 o          1 08F      -0.535000
      6 C1           1.2020    -2.0180    -1.2200 cc         1 08F      -0.148200
      7 C2           4.4050    -2.3060    -0.7080 ca         1 08F      -0.049000
      8 C3           5.7500    -2.2340    -0.3020 ca         1 08F       0.092000
      9 C4           3.5160    -1.3070    -0.2660 ca         1 08F      -0.091800
     10 C5           3.9200    -0.3240     0.5980 ca         1 08F      -0.032200
     11 N1           2.8440     0.4770     0.9720 na         1 08F      -0.061700
     12 C6           1.7010    -0.0240     0.2740 cd         1 08F      -0.109300
     13 C7           2.0930    -1.1600    -0.4560 cc         1 08F      -0.023200
     14 C8           6.1810    -1.2020     0.5550 ca         1 08F      -0.079000
     15 C9           5.2610    -0.2430     1.0260 ca         1 08F      -0.117000
     16 C10          0.3730     0.6610     0.1160 c          1 08F       0.681300
     17 O5          -0.3370     0.5530    -0.8730 o          1 08F      -0.542100
     18 C12         -0.1680    -2.3620    -0.7270 c          1 08F       0.562200
     19 N2          -0.8970    -3.1530    -1.5760 ns         1 08F      -0.353100
     20 C13         -0.4510    -3.6780    -2.7740 cc         1 08F      -0.029400
     21 C14          0.8310    -3.4090    -3.1990 cd         1 08F      -0.290000
     22 C15          1.6850    -2.5620    -2.4040 cd         1 08F      -0.071000
     23 O6          -0.6240    -2.0570     0.3670 o          1 08F      -0.597000
     24 N3           0.0260     1.4460     1.1690 ns         1 08F      -0.556300
     25 C16         -2.6680     0.9370     1.3830 ca         1 08F      -0.277500
     26 C17          2.7260     2.9900     0.6860 ca         1 08F      -0.058300
     27 C18          3.0360     2.9670    -0.6890 ca         1 08F      -0.206000
     28 C19          2.7390     4.0870    -1.4870 ca         1 08F       0.387900
     29 N4           2.1640     5.2090    -0.9990 nb         1 08F      -0.737000
     30 C20          1.8840     5.2180     0.2970 ca         1 08F       0.607900
     31 C21          2.1320     4.1640     1.1830 ca         1 08F      -0.204000
     32 N5           1.3220     6.3730     0.6600 nv         1 08F      -1.043900
     33 Cl1          6.8940    -3.4550    -0.8450 cl         1 08F      -0.207000
     34 C22         -2.9720     0.2470     2.5730 ca         1 08F       0.010000
     35 C23         -3.9150    -0.7920     2.5540 ca         1 08F      -0.117000
     36 C24         -4.5550    -1.1500     1.3540 ca         1 08F      -0.036000
     37 C25         -4.2640    -0.4670     0.1530 ca         1 08F       0.208000
     38 C26         -3.3160     0.5750     0.1800 ca         1 08F      -0.024000
     39 N6          -4.8690    -0.7900    -1.0710 nu         1 08F      -0.880100
     40 C27         -7.5380    -0.7260    -0.5000 c3         1 08F      -0.380100
     41 H2           4.0780    -3.1380    -1.3240 ha         1 08F       0.133000
     42 H3           7.2200    -1.1610     0.8730 ha         1 08F       0.130000
     43 H4           5.6010     0.5230     1.7170 ha         1 08F       0.123000
     44 H5           2.3790     1.8570     2.4950 h1         1 08F       0.071200
     45 H6           4.0470     1.9160     1.9730 h1         1 08F       0.071200
     46 H7          -1.1860    -4.2910    -3.2910 h4         1 08F       0.206000
     47 H8           1.1900    -3.8190    -4.1420 ha         1 08F       0.206000
     48 H9           2.6710    -2.3020    -2.7780 ha         1 08F       0.195000
     49 H10          0.5720     1.4240     2.0090 hn         1 08F       0.353500
     50 H11          3.5050     2.1000    -1.1450 ha         1 08F       0.128000
     51 H12          2.9710     4.0840    -2.5520 h4         1 08F       0.017100
     52 H13          1.8710     4.2590     2.2320 ha         1 08F       0.121000
     53 H14          0.9910     6.9420    -0.1100 hn         1 08F       0.475500
     54 H15          0.7580     6.3790     1.5020 hn         1 08F       0.475500
     55 H16         -2.4780     0.5040     3.5100 ha         1 08F       0.141000
     56 H17         -4.1460    -1.3280     3.4710 ha         1 08F       0.128000
     57 H18         -5.2680    -1.9670     1.3710 ha         1 08F       0.142000
     58 H19         -3.0760     1.0950    -0.7440 ha         1 08F       0.146000
     59 H20         -4.6970    -0.2020    -1.8760 hn         1 08F       0.494000
     60 H21         -8.4930    -1.2190    -0.7090 h1         1 08F       0.105700
     61 H22         -7.2940    -0.7730     0.5650 h1         1 08F       0.105700
     62 H23         -7.5360     0.3060    -0.8640 h1         1 08F       0.105700
     63 H1          -1.8300    -3.3760    -1.2480 hn         1 08F       0.329500
     64 S2          -1.4230     2.2410     1.3920 sy         1 08F       1.181300
     65 C11          3.0210     1.8080     1.6080 c3         1 08F       0.118900
@<TRIPOS>BOND
     1     1     2 2   
     2     1     3 2   
     3     1    39 1   
     4     1    40 1   
     5     4    64 2   
     6     5    64 2   
     7     6    13 1   
     8     6    18 1   
     9     6    22 2   
    10     7     8 ar  
    11     7     9 ar  
    12     7    41 1   
    13     8    14 ar  
    14     8    33 1   
    15     9    10 ar  
    16     9    13 1   
    17    10    11 1   
    18    10    15 ar  
    19    11    12 1   
    20    11    65 1   
    21    12    13 2   
    22    12    16 1   
    23    14    15 ar  
    24    14    42 1   
    25    15    43 1   
    26    16    17 2   
    27    16    24 1   
    28    18    19 1   
    29    18    23 2   
    30    19    20 1   
    31    19    63 1   
    32    20    21 2   
    33    20    46 1   
    34    21    22 1   
    35    21    47 1   
    36    22    48 1   
    37    24    49 1   
    38    24    64 1   
    39    25    34 ar  
    40    25    38 ar  
    41    25    64 1   
    42    26    27 ar  
    43    26    31 ar  
    44    26    65 1   
    45    27    28 ar  
    46    27    50 1   
    47    28    29 ar  
    48    28    51 1   
    49    29    30 ar  
    50    30    31 ar  
    51    30    32 1   
    52    31    52 1   
    53    32    53 1   
    54    32    54 1   
    55    34    35 ar  
    56    34    55 1   
    57    35    36 ar  
    58    35    56 1   
    59    36    37 ar  
    60    36    57 1   
    61    37    38 ar  
    62    37    39 1   
    63    38    58 1   
    64    39    59 1   
    65    40    60 1   
    66    40    61 1   
    67    40    62 1   
    68    44    65 1   
    69    45    65 1   
@<TRIPOS>SUBSTRUCTURE
     1 08F         1 TEMP              0 ****  ****    0 ROOT
