@<TRIPOS>MOLECULE
08F
   65    69     1     0     0
SMALL
abcg2


@<TRIPOS>ATOM
      1 S1          -6.0690    -0.6050    -1.5260 s6         1 08F       1.187100
      2 O1          -6.2980    -0.7640    -2.9510 o          1 08F      -0.525500
      3 O2          -6.8000    -1.4270    -0.5780 o          1 08F      -0.525500
      4 O3          -1.4860     1.6390     3.5900 o          1 08F      -0.535000
      5 O4          -1.7630     2.6980     1.3300 o          1 08F      -0.535000
      6 C1           1.1400    -1.9750    -0.9300 cc         1 08F      -0.148200
      7 C2           4.4110    -2.1550    -0.7290 ca         1 08F      -0.049000
      8 C3           5.7520    -1.9620    -0.4900 ca         1 08F       0.092000
      9 C4           3.5190    -1.1870    -0.2580 ca         1 08F      -0.091800
     10 C5           4.0040    -0.0780     0.4650 ca         1 08F      -0.032200
     11 N1           2.9330     0.6800     0.8550 na         1 08F      -0.061700
     12 C6           1.7950     0.0930     0.3620 cd         1 08F      -0.109300
     13 C7           2.0970    -1.0550    -0.3240 cc         1 08F      -0.023200
     14 C8           6.2380    -0.8430     0.2030 ca         1 08F      -0.079000
     15 C9           5.3680     0.1080     0.6910 ca         1 08F      -0.117000
     16 C10          0.4370     0.6670     0.4920 c          1 08F       0.681300
     17 O5          -0.2690     0.8450    -0.4690 o          1 08F      -0.542100
     18 C12         -0.0200    -2.3560    -0.1440 c          1 08F       0.562200
     19 N2          -0.8770    -3.2260    -0.7810 ns         1 08F      -0.353100
     20 C13         -0.7050    -3.7320    -2.0230 cc         1 08F      -0.029400
     21 C14          0.3860    -3.3930    -2.7540 cd         1 08F      -0.290000
     22 C15          1.3130    -2.4930    -2.1830 cd         1 08F      -0.071000
     23 O6          -0.2620    -1.9680     0.9950 o          1 08F      -0.597000
     24 N3           0.0500     0.9740     1.7760 ns         1 08F      -0.556300
     25 C16         -2.5620     0.2120     1.6650 ca         1 08F      -0.277500
     26 C17          2.4940     3.0480     0.4690 ca         1 08F      -0.058300
     27 C18          3.0530     3.1720    -0.8070 ca         1 08F      -0.206000
     28 C19          2.5150     4.1220    -1.6500 ca         1 08F       0.387900
     29 N4           1.4890     4.9100    -1.3350 nb         1 08F      -0.737000
     30 C20          0.9540     4.7870    -0.1250 ca         1 08F       0.607900
     31 C21          1.4480     3.8690     0.8200 ca         1 08F      -0.204000
     32 N5          -0.0850     5.6120     0.1950 nv         1 08F      -1.043900
     33 CL1          6.8960    -3.1380    -1.0620 cl         1 08F      -0.207000
     34 C22         -2.7950    -0.8150     2.5660 ca         1 08F       0.010000
     35 C23         -3.5950    -1.8740     2.1710 ca         1 08F      -0.117000
     36 C24         -4.1360    -1.9110     0.8950 ca         1 08F      -0.036000
     37 C25         -3.9040    -0.8640     0.0100 ca         1 08F       0.208000
     38 C26         -3.1220     0.2160     0.3980 ca         1 08F      -0.024000
     39 N6          -4.4460    -0.9120    -1.2970 nu         1 08F      -0.880100
     40 C27         -6.3090     1.1000    -1.0880 c3         1 08F      -0.380100
     41 H2           4.0610    -3.0310    -1.2600 ha         1 08F       0.133000
     42 H3           7.3010    -0.7280     0.3620 ha         1 08F       0.130000
     43 H4           5.7530     0.9630     1.2300 ha         1 08F       0.123000
     44 H5           2.4470     2.0440     2.3690 h1         1 08F       0.071200
     45 H6           4.0450     2.2080     1.6850 h1         1 08F       0.071200
     46 H7          -1.4760    -4.4030    -2.3720 h4         1 08F       0.206000
     47 H8           0.5270    -3.7920    -3.7470 ha         1 08F       0.206000
     48 H9           2.1740    -2.1910    -2.7680 ha         1 08F       0.195000
     49 H10          0.5310     0.5280     2.5490 hn         1 08F       0.353500
     50 H11          3.8780     2.5520    -1.1340 ha         1 08F       0.128000
     51 H12          2.9270     4.2570    -2.6440 h4         1 08F       0.017100
     52 H13          0.9960     3.8020     1.8010 ha         1 08F       0.121000
     53 H14         -0.5420     6.0610    -0.5820 hn         1 08F       0.475500
     54 H15         -0.7200     5.2880     0.9060 hn         1 08F       0.475500
     55 H16         -2.3600    -0.8050     3.5560 ha         1 08F       0.141000
     56 H17         -3.7830    -2.6860     2.8590 ha         1 08F       0.128000
     57 H18         -4.7280    -2.7600     0.5830 ha         1 08F       0.142000
     58 H19         -2.9590     1.0370    -0.2870 ha         1 08F       0.146000
     59 H20         -3.8780    -0.4600    -2.0070 hn         1 08F       0.494000
     60 H21         -7.3640     1.3330    -1.2180 h1         1 08F       0.105700
     61 H22         -6.0260     1.2500    -0.0480 h1         1 08F       0.105700
     62 H23         -5.7050     1.7250    -1.7410 h1         1 08F       0.105700
     63 H1          -1.6950    -3.5060    -0.2560 hn         1 08F       0.329500
     64 S2          -1.4950     1.5340     2.1450 sy         1 08F       1.181300
     65 C11          3.0050     2.0100     1.4330 c3         1 08F       0.118900
@<TRIPOS>BOND
     1     1     2 2   
     2     1     3 2   
     3     1    39 1   
     4     1    40 1   
     5     4    64 2   
     6     5    64 2   
     7     6    13 1   
     8     6    18 1   
     9     6    22 2   
    10     7     8 ar  
    11     7     9 ar  
    12     7    41 1   
    13     8    14 ar  
    14     8    33 1   
    15     9    10 ar  
    16     9    13 1   
    17    10    11 1   
    18    10    15 ar  
    19    11    12 1   
    20    11    65 1   
    21    12    13 2   
    22    12    16 1   
    23    14    15 ar  
    24    14    42 1   
    25    15    43 1   
    26    16    17 2   
    27    16    24 1   
    28    18    19 1   
    29    18    23 2   
    30    19    20 1   
    31    19    63 1   
    32    20    21 2   
    33    20    46 1   
    34    21    22 1   
    35    21    47 1   
    36    22    48 1   
    37    24    49 1   
    38    24    64 1   
    39    25    34 ar  
    40    25    38 ar  
    41    25    64 1   
    42    26    27 ar  
    43    26    31 ar  
    44    26    65 1   
    45    27    28 ar  
    46    27    50 1   
    47    28    29 ar  
    48    28    51 1   
    49    29    30 ar  
    50    30    31 ar  
    51    30    32 1   
    52    31    52 1   
    53    32    53 1   
    54    32    54 1   
    55    34    35 ar  
    56    34    55 1   
    57    35    36 ar  
    58    35    56 1   
    59    36    37 ar  
    60    36    57 1   
    61    37    38 ar  
    62    37    39 1   
    63    38    58 1   
    64    39    59 1   
    65    40    60 1   
    66    40    61 1   
    67    40    62 1   
    68    44    65 1   
    69    45    65 1   
@<TRIPOS>SUBSTRUCTURE
     1 08F         1 TEMP              0 ****  ****    0 ROOT
