@<TRIPOS>MOLECULE
08G
   40    42     1     0     0
SMALL
No Charge or Current Charge


@<TRIPOS>ATOM
      1 C12         40.8470    -8.3450    24.2050 cc         1 08G       0.374800
      2 C13         40.0360    -8.2540    23.0240 ca         1 08G      -0.330900
      3 C14         39.3290    -9.2150    22.2970 ca         1 08G       0.462300
      4 C15         39.3240   -10.7030    22.6950 c3         1 08G       0.111300
      5 C19         37.6550    -9.8210    17.3880 ca         1 08G      -0.093500
      6 C20         38.7290   -10.6050    16.9310 ca         1 08G      -0.107000
      7 C21         39.5940   -10.1060    15.9430 ca         1 08G      -0.101000
      8 C22         39.3860    -8.8220    15.4140 ca         1 08G      -0.107000
      9 C01         35.2130    -7.4560    16.2870 c3         1 08G      -0.102100
     10 C02         36.2790    -7.6790    17.3750 c3         1 08G       0.169000
     11 C04         37.5110    -6.1970    19.0190 c          1 08G       0.673100
     12 C07         38.6350    -7.5330    20.8340 ca         1 08G       0.521900
     13 C08         39.3360    -6.5290    21.5400 ca         1 08G      -0.214000
     14 C09         40.0430    -6.9530    22.6630 ca         1 08G       0.015800
     15 C18         37.4400    -8.5310    16.8620 ca         1 08G      -0.128300
     16 C23         38.3140    -8.0370    15.8710 ca         1 08G      -0.093500
     17 N03         36.7500    -6.3940    17.8950 ns         1 08G      -0.527900
     18 N06         37.8700    -7.3390    19.6840 ns         1 08G      -0.327900
     19 N10         40.8230    -6.2800    23.5750 na         1 08G      -0.062400
     20 N11         41.3390    -7.1430    24.5560 nd         1 08G      -0.519100
     21 N17         38.6270    -8.8420    21.1930 nb         1 08G      -0.731000
     22 O05         37.8180    -5.0700    19.3640 o          1 08G      -0.637100
     23 O16         38.7370   -10.9400    23.9940 oh         1 08G      -0.629000
     24 H1          41.1100    -9.1940    24.8230 h4         1 08G       0.047800
     25 H2          40.3620   -11.0620    22.6830 h1         1 08G       0.032200
     26 H3          38.7800   -11.2740    21.9310 h1         1 08G       0.032200
     27 H5          38.8890   -11.5990    17.3420 ha         1 08G       0.115500
     28 H6          40.4250   -10.7130    15.5900 ha         1 08G       0.114000
     29 H7          40.0570    -8.4340    14.6500 ha         1 08G       0.115500
     30 H8          34.3620    -6.8940    16.6910 hc         1 08G       0.048700
     31 H9          35.6240    -6.8980    15.4390 hc         1 08G       0.048700
     32 H10         34.8400    -8.4190    15.9170 hc         1 08G       0.048700
     33 H11         35.7890    -8.2120    18.2010 h1         1 08G       0.057700
     34 H12         39.3370    -5.4900    21.2340 ha         1 08G       0.166000
     35 H13         38.1660    -7.0420    15.4580 ha         1 08G       0.114500
     36 H14         36.4860    -5.5520    17.4010 hn         1 08G       0.332500
     37 H15         37.5420    -8.1980    19.2690 hn         1 08G       0.177000
     38 H16         41.0260    -5.2810    23.5750 hn         1 08G       0.380000
     39 H17         38.7370   -11.9120    24.1400 ho         1 08G       0.440000
     40 H4          36.9930   -10.2200    18.1540 ha         1 08G       0.114500
@<TRIPOS>BOND
     1     1     2 1   
     2     1    20 2   
     3     1    24 1   
     4     2     3 ar  
     5     2    14 ar  
     6     3     4 1   
     7     3    21 ar  
     8     4    23 1   
     9     4    25 1   
    10     4    26 1   
    11     5     6 ar  
    12     5    15 ar  
    13     5    40 1   
    14     6     7 ar  
    15     6    27 1   
    16     7     8 ar  
    17     7    28 1   
    18     8    16 ar  
    19     8    29 1   
    20     9    10 1   
    21     9    30 1   
    22     9    31 1   
    23     9    32 1   
    24    10    15 1   
    25    10    17 1   
    26    10    33 1   
    27    11    17 1   
    28    11    18 1   
    29    11    22 2   
    30    12    13 ar  
    31    12    18 1   
    32    12    21 ar  
    33    13    14 ar  
    34    13    34 1   
    35    14    19 1   
    36    15    16 ar  
    37    16    35 1   
    38    17    36 1   
    39    18    37 1   
    40    19    20 1   
    41    19    38 1   
    42    23    39 1   
@<TRIPOS>SUBSTRUCTURE
     1 08G         1 TEMP              0 ****  ****    0 ROOT
