@<TRIPOS>MOLECULE
08G
   40    42     1     0     0
SMALL
bcc


@<TRIPOS>ATOM
      1 C12         40.9690    -8.0720    24.2850 cc         1 08G       0.374800
      2 C13         40.1510    -8.1310    23.1250 ca         1 08G      -0.396200
      3 C14         39.4770    -9.1090    22.3800 ca         1 08G       0.527600
      4 C15         39.5540   -10.5490    22.8010 c3         1 08G       0.088100
      5 C19         37.2680   -10.0010    17.1620 ca         1 08G      -0.111500
      6 C20         38.2190   -10.8670    16.6390 ca         1 08G      -0.125000
      7 C21         39.2710   -10.3680    15.8840 ca         1 08G      -0.119000
      8 C22         39.3650    -9.0010    15.6570 ca         1 08G      -0.125000
      9 C01         35.2410    -7.3990    16.4220 c3         1 08G      -0.102100
     10 C02         36.2870    -7.7040    17.4890 c3         1 08G       0.169000
     11 C04         37.6230    -6.2490    19.0540 c          1 08G       0.807100
     12 C07         38.7110    -7.4900    20.9130 ca         1 08G       0.587200
     13 C08         39.3280    -6.4370    21.5580 ca         1 08G      -0.297300
     14 C09         40.0610    -6.8030    22.6900 ca         1 08G       0.015800
     15 C18         37.3560    -8.6300    16.9410 ca         1 08G      -0.128300
     16 C23         38.4150    -8.1370    16.1820 ca         1 08G      -0.111500
     17 N03         36.8220    -6.4490    17.9790 ns         1 08G      -0.594900
     18 N06         37.9320    -7.3780    19.7690 ns         1 08G      -0.561400
     19 N10         40.7880    -6.0820    23.5650 na         1 08G      -0.012100
     20 N11         41.3350    -6.8420    24.5260 nd         1 08G      -0.519100
     21 N17         38.7900    -8.7790    21.3160 nb         1 08G      -0.731000
     22 O05         38.0260    -5.1340    19.3570 o          1 08G      -0.637100
     23 O16         38.7490   -11.3500    21.9870 oh         1 08G      -0.566800
     24 H1          41.2900    -8.8770    24.9300 h4         1 08G       0.047800
     25 H2          39.2640   -10.6050    23.8600 h1         1 08G       0.032200
     26 H3          40.6120   -10.8490    22.7640 h1         1 08G       0.032200
     27 H5          38.1400   -11.9300    16.8260 ha         1 08G       0.133500
     28 H6          40.0170   -11.0400    15.4780 ha         1 08G       0.132000
     29 H7          40.1840    -8.6040    15.0700 ha         1 08G       0.133500
     30 H8          34.4390    -6.7840    16.8310 hc         1 08G       0.048700
     31 H9          35.6880    -6.8730    15.5770 hc         1 08G       0.048700
     32 H10         34.8050    -8.3250    16.0500 hc         1 08G       0.048700
     33 H11         35.7720    -8.2180    18.3090 h1         1 08G       0.057700
     34 H12         39.2530    -5.4170    21.2220 ha         1 08G       0.184000
     35 H13         38.5030    -7.0720    16.0050 ha         1 08G       0.132500
     36 H14         36.6280    -5.6170    17.4440 hn         1 08G       0.332500
     37 H15         37.5930    -8.2750    19.4530 hn         1 08G       0.343500
     38 H16         40.9450    -5.0870    23.5660 hn         1 08G       0.329700
     39 H17         38.8430   -12.2590    22.2870 ho         1 08G       0.401000
     40 H4          36.4500   -10.3960    17.7540 ha         1 08G       0.132500
@<TRIPOS>BOND
     1     1     2 1   
     2     1    20 2   
     3     1    24 1   
     4     2     3 ar  
     5     2    14 ar  
     6     3     4 1   
     7     3    21 ar  
     8     4    23 1   
     9     4    25 1   
    10     4    26 1   
    11     5     6 ar  
    12     5    15 ar  
    13     5    40 1   
    14     6     7 ar  
    15     6    27 1   
    16     7     8 ar  
    17     7    28 1   
    18     8    16 ar  
    19     8    29 1   
    20     9    10 1   
    21     9    30 1   
    22     9    31 1   
    23     9    32 1   
    24    10    15 1   
    25    10    17 1   
    26    10    33 1   
    27    11    17 1   
    28    11    18 1   
    29    11    22 2   
    30    12    13 ar  
    31    12    18 1   
    32    12    21 ar  
    33    13    14 ar  
    34    13    34 1   
    35    14    19 1   
    36    15    16 ar  
    37    16    35 1   
    38    17    36 1   
    39    18    37 1   
    40    19    20 1   
    41    19    38 1   
    42    23    39 1   
@<TRIPOS>SUBSTRUCTURE
     1 08G         1 TEMP              0 ****  ****    0 ROOT
