@<TRIPOS>MOLECULE
08H
   35    38     1     0     0
SMALL
No Charge or Current Charge


@<TRIPOS>ATOM
      1 CAS         -0.0530     0.4290    -0.4750 ca         1 08H      -0.178900
      2 CAJ         -1.0110     1.4540    -0.6490 ca         1 08H      -0.064000
      3 CAP         -0.6640     2.8010    -0.4740 ca         1 08H       0.108000
      4 ClAB        -1.8750     4.0570    -0.6950 cl         1 08H      -0.179000
      5 CAH          0.6500     3.1490    -0.1360 ca         1 08H      -0.078000
      6 CAI          1.6170     2.1440     0.0340 ca         1 08H      -0.114000
      7 CAU          1.2750     0.7840    -0.1180 ca         1 08H       0.028800
      8 NAV          2.2550    -0.1980     0.0430 na         1 08H      -0.286800
      9 CAR          3.1710    -0.3090     1.0580 cc         1 08H       0.409800
     10 CAA          3.3050     0.5760     2.2660 c3         1 08H      -0.125400
     11 NAM          3.8970    -1.3940     0.8190 nd         1 08H      -0.355000
     12 NAN          3.4230    -1.9920    -0.3370 nd         1 08H      -0.331000
     13 CAT          2.4160    -1.2610    -0.7930 cc         1 08H       0.378800
     14 CAK          1.5230    -1.5600    -1.9710 c3         1 08H       0.076500
     15 NAL          0.1240    -1.7810    -1.5400 n2         1 08H      -0.561900
     16 CAO         -0.4850    -0.9950    -0.6970 ce         1 08H       0.529500
     17 CAQ         -1.7480    -1.4630    -0.0290 ca         1 08H      -0.147900
     18 CAF         -2.4990    -2.5390    -0.5600 ca         1 08H      -0.075500
     19 CAD         -3.6590    -2.9940     0.0900 ca         1 08H      -0.117500
     20 CAC         -4.0770    -2.3950     1.2890 ca         1 08H      -0.092000
     21 CAE         -3.3280    -1.3440     1.8410 ca         1 08H      -0.117500
     22 CAG         -2.1680    -0.8860     1.1930 ca         1 08H      -0.075500
     23 H1          -2.0330     1.2070    -0.9290 ha         1 08H       0.147000
     24 H2           0.9220     4.1940    -0.0140 ha         1 08H       0.139000
     25 H3           2.6380     2.4330     0.2690 ha         1 08H       0.135000
     26 H4           2.3290     0.9580     2.5850 hc         1 08H       0.061367
     27 H5           3.7380     0.0230     3.1060 hc         1 08H       0.061367
     28 H6           3.9590     1.4290     2.0510 hc         1 08H       0.061367
     29 H7           1.5860    -0.7200    -2.6760 h1         1 08H       0.083200
     30 H8           1.9120    -2.4470    -2.4880 h1         1 08H       0.083200
     31 H12         -2.1930    -3.0210    -1.4870 ha         1 08H       0.123500
     32 H13         -4.2320    -3.8150    -0.3350 ha         1 08H       0.117500
     33 H14         -4.9740    -2.7500     1.7920 ha         1 08H       0.115000
     34 H15         -3.6430    -0.8870     2.7770 ha         1 08H       0.117500
     35 H16         -1.5940    -0.0840     1.6520 ha         1 08H       0.123500
@<TRIPOS>BOND
     1     1     2 ar  
     2     1     7 ar  
     3     1    16 1   
     4     2     3 ar  
     5     2    23 1   
     6     3     4 1   
     7     3     5 ar  
     8     5     6 ar  
     9     5    24 1   
    10     6     7 ar  
    11     6    25 1   
    12     7     8 1   
    13     8     9 1   
    14     8    13 1   
    15     9    10 1   
    16     9    11 2   
    17    10    26 1   
    18    10    27 1   
    19    10    28 1   
    20    11    12 1   
    21    12    13 2   
    22    13    14 1   
    23    14    15 1   
    24    14    29 1   
    25    14    30 1   
    26    15    16 2   
    27    16    17 1   
    28    17    18 ar  
    29    17    22 ar  
    30    18    19 ar  
    31    18    31 1   
    32    19    20 ar  
    33    19    32 1   
    34    20    21 ar  
    35    20    33 1   
    36    21    22 ar  
    37    21    34 1   
    38    22    35 1   
@<TRIPOS>SUBSTRUCTURE
     1 08H         1 TEMP              0 ****  ****    0 ROOT
