@<TRIPOS>MOLECULE
08H
   35    38     1     0     0
SMALL
abcg2


@<TRIPOS>ATOM
      1 CAS         -0.0490     0.3690    -0.4110 ca         1 08H      -0.178900
      2 CAJ         -1.0170     1.3510    -0.6130 ca         1 08H      -0.064000
      3 CAP         -0.6960     2.6880    -0.4760 ca         1 08H       0.108000
      4 CLAB        -1.9120     3.8850    -0.7440 cl         1 08H      -0.179000
      5 CAH          0.5880     3.0810    -0.1310 ca         1 08H      -0.078000
      6 CAI          1.5590     2.1150     0.0590 ca         1 08H      -0.114000
      7 CAU          1.2490     0.7680    -0.0760 ca         1 08H       0.028800
      8 NAV          2.2540    -0.2000     0.0990 na         1 08H      -0.286800
      9 CAR          3.2520    -0.2910     1.0300 cc         1 08H       0.409800
     10 CAA          3.4490     0.6290     2.1750 c3         1 08H      -0.125400
     11 NAM          3.9790    -1.3370     0.7660 nd         1 08H      -0.355000
     12 NAN          3.4750    -1.9500    -0.3380 nd         1 08H      -0.331000
     13 CAT          2.4470    -1.2670    -0.7300 cc         1 08H       0.378800
     14 CAK          1.4830    -1.5590    -1.8190 c3         1 08H       0.076500
     15 NAL          0.2140    -1.9310    -1.2210 n2         1 08H      -0.561900
     16 CAO         -0.4490    -1.0550    -0.5820 ce         1 08H       0.529500
     17 CAQ         -1.7410    -1.4680     0.0170 ca         1 08H      -0.147900
     18 CAF         -2.5140    -2.4480    -0.6060 ca         1 08H      -0.075500
     19 CAD         -3.7060    -2.8660    -0.0380 ca         1 08H      -0.117500
     20 CAC         -4.1350    -2.3210     1.1670 ca         1 08H      -0.092000
     21 CAE         -3.3680    -1.3530     1.7980 ca         1 08H      -0.117500
     22 CAG         -2.1800    -0.9220     1.2230 ca         1 08H      -0.075500
     23 H1          -2.0230     1.0620    -0.8840 ha         1 08H       0.147000
     24 H2           0.8400     4.1270    -0.0290 ha         1 08H       0.139000
     25 H3           2.5680     2.4260     0.2900 ha         1 08H       0.135000
     26 H4           2.5010     0.9080     2.6350 hc         1 08H       0.061367
     27 H5           4.0640     0.1350     2.9230 hc         1 08H       0.061367
     28 H6           3.9610     1.5450     1.8780 hc         1 08H       0.061367
     29 H7           1.3840    -0.6910    -2.4810 h1         1 08H       0.083200
     30 H8           1.8580    -2.3900    -2.4140 h1         1 08H       0.083200
     31 H12         -2.1830    -2.8720    -1.5450 ha         1 08H       0.123500
     32 H13         -4.3050    -3.6160    -0.5370 ha         1 08H       0.117500
     33 H14         -5.0660    -2.6510     1.6100 ha         1 08H       0.115000
     34 H15         -3.6900    -0.9290     2.7400 ha         1 08H       0.117500
     35 H16         -1.5880    -0.1690     1.7280 ha         1 08H       0.123500
@<TRIPOS>BOND
     1     1     2 ar  
     2     1     7 ar  
     3     1    16 1   
     4     2     3 ar  
     5     2    23 1   
     6     3     4 1   
     7     3     5 ar  
     8     5     6 ar  
     9     5    24 1   
    10     6     7 ar  
    11     6    25 1   
    12     7     8 1   
    13     8     9 1   
    14     8    13 1   
    15     9    10 1   
    16     9    11 2   
    17    10    26 1   
    18    10    27 1   
    19    10    28 1   
    20    11    12 1   
    21    12    13 2   
    22    13    14 1   
    23    14    15 1   
    24    14    29 1   
    25    14    30 1   
    26    15    16 2   
    27    16    17 1   
    28    17    18 ar  
    29    17    22 ar  
    30    18    19 ar  
    31    18    31 1   
    32    19    20 ar  
    33    19    32 1   
    34    20    21 ar  
    35    20    33 1   
    36    21    22 ar  
    37    21    34 1   
    38    22    35 1   
@<TRIPOS>SUBSTRUCTURE
     1 08H         1 TEMP              0 ****  ****    0 ROOT
