@<TRIPOS>MOLECULE
08I
  131   136     1     0     0
SMALL
abcg2


@<TRIPOS>ATOM
      1 C4         167.7370   145.3360   138.0360 c3         1 08I      -0.064900
      2 C5         166.5030   143.2400   137.3030 c3         1 08I      -0.045200
      3 C7         167.5140   141.1230   136.4140 c2         1 08I      -0.223200
      4 C8         167.9670   140.1700   137.2330 c2         1 08I      -0.110400
      5 C10        167.6370   138.7240   136.9740 c3         1 08I      -0.039200
      6 C1         165.5150   146.9350   136.6040 c3         1 08I       0.208800
      7 C3         166.5540   144.7430   137.3300 c2         1 08I      -0.069400
      8 C11        166.5910   138.1600   137.9480 c3         1 08I      -0.035200
      9 C9         168.7900   140.4350   138.4600 c3         1 08I      -0.055900
     10 NB         156.3410   150.7710   140.6250 nc         1 08I      -0.650300
     11 ND         159.1660   153.1800   139.3490 nc         1 08I      -0.730000
     12 C12        166.2260   136.7500   137.6040 c2         1 08I      -0.221200
     13 C13        166.3190   135.6540   138.3620 c2         1 08I      -0.111400
     14 C14        166.8240   135.6330   139.7750 c3         1 08I      -0.054900
     15 C15        165.8960   134.3150   137.8150 c3         1 08I      -0.038200
     16 C16        164.6140   133.7640   138.4590 c3         1 08I      -0.035200
     17 C17        164.2000   132.4720   137.8270 c2         1 08I      -0.224200
     18 C18        164.2120   131.2490   138.3620 c2         1 08I      -0.112400
     19 C19        163.7890   130.0520   137.5600 c3         1 08I      -0.055400
     20 C1A        160.6120   150.4800   139.9560 cc         1 08I      -0.022800
     21 C1B        156.4880   149.5050   141.0630 cc         1 08I       0.155600
     22 C1C        155.1030   153.4330   139.9670 cc         1 08I       0.089000
     23 C1D        159.1450   154.5000   139.0080 cd         1 08I       0.285800
     24 C2         165.5960   145.4520   136.7270 c2         1 08I      -0.273200
     25 C20        164.6370   130.9330   139.7660 c3         1 08I      -0.055400
     26 C2A        161.1680   149.1980   140.2910 cd         1 08I      -0.089300
     27 C2B        155.2130   148.9380   141.4870 cc         1 08I      -0.046200
     28 C2C        154.4950   154.7090   139.7040 cc         1 08I      -0.108200
     29 C2D        160.4710   155.0050   138.6870 cd         1 08I       0.010700
     30 C3A        160.1470   148.4230   140.7800 cc         1 08I      -0.095300
     31 C3B        154.2900   149.9140   141.2600 cd         1 08I      -0.301800
     32 C3C        155.4880   155.5610   139.2960 cd         1 08I      -0.082200
     33 C3D        161.2780   153.9130   138.8490 cc         1 08I      -0.260600
     34 C4A        158.9460   149.2050   140.7410 cd         1 08I      -0.016800
     35 C4B        155.0290   151.0560   140.7210 cd         1 08I       0.457900
     36 C4C        156.7180   154.8200   139.3030 cc         1 08I       0.039000
     37 C4D        160.4420   152.8280   139.2480 cc         1 08I       0.264000
     38 C6         167.6880   142.6050   136.5570 c3         1 08I      -0.035200
     39 CAA        162.5730   148.7410   140.0770 c3         1 08I      -0.011100
     40 CAB        152.8420   149.7740   141.5080 c          1 08I       0.599300
     41 CAC        155.3720   157.0130   138.9700 c3         1 08I      -0.020200
     42 CAD        162.6500   153.4650   138.7950 c          1 08I       0.624700
     43 CBA        162.6970   147.9950   138.7480 c3         1 08I      -0.139400
     44 CBB        151.8650   150.3760   140.5310 c3         1 08I      -0.195100
     45 CBC        155.5750   157.8930   140.2040 c3         1 08I      -0.088100
     46 CBD        162.6200   151.9400   139.1370 c5         1 08I      -0.182500
     47 CED        162.7040   150.7000   135.6720 c3         1 08I       0.144900
     48 CGA        164.1150   147.6320   138.3990 c          1 08I       0.603100
     49 CGD        163.1740   151.2370   137.9150 c          1 08I       0.601100
     50 CHA        161.1680   151.6490   139.4620 cf         1 08I      -0.049400
     51 CHB        157.6810   148.7890   141.1230 cf         1 08I      -0.191200
     52 CHC        154.4590   152.2930   140.4210 cf         1 08I      -0.210600
     53 CHD        157.9830   155.2730   138.9780 cf         1 08I      -0.168800
     54 CMA        160.2200   147.0110   141.2440 c3         1 08I      -0.037800
     55 CMC        153.0460   155.0040   139.8760 c3         1 08I      -0.032900
     56 CMD        160.8170   156.3920   138.2900 c3         1 08I      -0.046800
     57 NA         159.2770   150.4180   140.2430 na         1 08I      -0.128000
     58 NC         156.4250   153.5550   139.7070 na         1 08I      -0.517000
     59 O1A        165.0100   147.5260   139.1990 o          1 08I      -0.483000
     60 O1D        164.2920   150.8010   137.8330 o          1 08I      -0.469000
     61 O2A        164.2500   147.4180   137.0960 os         1 08I      -0.451100
     62 O2D        162.2910   151.2330   136.9340 os         1 08I      -0.430100
     63 OBB        152.4450   149.1390   142.4660 o          1 08I      -0.524100
     64 OBD        163.6610   154.0670   138.5310 o          1 08I      -0.495100
     65 H1         167.9570   144.7750   138.9470 hc         1 08I       0.047033
     66 H2         168.6330   145.2830   137.4140 hc         1 08I       0.047033
     67 H3         167.5930   146.3780   138.3140 hc         1 08I       0.047033
     68 H4         166.5020   142.8600   138.3300 hc         1 08I       0.049200
     69 H5         165.5690   142.9090   136.8420 hc         1 08I       0.049200
     70 H6         166.9120   140.8090   135.5650 ha         1 08I       0.166000
     71 H7         167.2630   138.6070   135.9530 hc         1 08I       0.045700
     72 H8         168.5460   138.1180   137.0460 hc         1 08I       0.045700
     73 H9         166.3380   147.4540   137.0940 h1         1 08I       0.066700
     74 H10        165.5170   147.2290   135.5530 h1         1 08I       0.066700
     75 H11        166.9520   138.2400   138.9750 hc         1 08I       0.046200
     76 H12        165.6970   138.7890   137.8870 hc         1 08I       0.046200
     77 H13        168.2530   140.1400   139.3650 hc         1 08I       0.039700
     78 H14        169.7080   139.8440   138.4400 hc         1 08I       0.039700
     79 H15        169.0670   141.4810   138.5750 hc         1 08I       0.039700
     80 H16        165.8480   136.6210   136.5910 ha         1 08I       0.164000
     81 H17        167.6400   134.9130   139.8760 hc         1 08I       0.038700
     82 H18        167.1890   136.5990   140.1190 hc         1 08I       0.038700
     83 H19        166.0440   135.3130   140.4710 hc         1 08I       0.038700
     84 H20        165.7440   134.3890   136.7350 hc         1 08I       0.045200
     85 H21        166.7000   133.5870   137.9700 hc         1 08I       0.045200
     86 H22        164.7540   133.6550   139.5360 hc         1 08I       0.045200
     87 H23        163.8180   134.5030   138.3250 hc         1 08I       0.045200
     88 H24        163.8820   132.5600   136.7900 ha         1 08I       0.164000
     89 H25        164.5990   129.3200   137.4920 hc         1 08I       0.038367
     90 H26        162.9490   129.5370   138.0340 hc         1 08I       0.038367
     91 H27        163.4930   130.3210   136.5470 hc         1 08I       0.038367
     92 H28        164.7920   144.9100   136.2360 ha         1 08I       0.174000
     93 H29        164.9240   131.8090   140.3430 hc         1 08I       0.038367
     94 H30        163.8330   130.4260   140.3060 hc         1 08I       0.038367
     95 H31        165.4860   130.2440   139.7620 hc         1 08I       0.038367
     96 H32        167.7590   143.0550   135.5620 hc         1 08I       0.045200
     97 H33        168.6200   142.8500   137.0700 hc         1 08I       0.045200
     98 H34        162.8670   148.0800   140.8940 hc         1 08I       0.070700
     99 H35        163.2700   149.5770   140.1150 hc         1 08I       0.070700
    100 H36        156.1000   157.2840   138.2030 hc         1 08I       0.049200
    101 H37        154.3910   157.2130   138.5370 hc         1 08I       0.049200
    102 H38        162.2430   148.5580   137.9320 hc         1 08I       0.072200
    103 H39        162.1270   147.0610   138.7990 hc         1 08I       0.072200
    104 H40        151.0000   149.7210   140.4340 hc         1 08I       0.061700
    105 H41        151.4990   151.3340   140.9100 hc         1 08I       0.061700
    106 H42        152.2980   150.5460   139.5470 hc         1 08I       0.061700
    107 H43        155.4910   158.9480   139.9430 hc         1 08I       0.038033
    108 H44        154.8270   157.6730   140.9670 hc         1 08I       0.038033
    109 H45        156.5590   157.7330   140.6440 hc         1 08I       0.038033
    110 H46        163.2930   151.7570   139.9780 hc         1 08I       0.114700
    111 H47        161.8430   150.7860   135.0170 h1         1 08I       0.052033
    112 H48        163.5350   151.2720   135.2590 h1         1 08I       0.052033
    113 H49        162.9930   149.6540   135.7590 h1         1 08I       0.052033
    114 H50        157.6240   147.7790   141.5080 ha         1 08I       0.194000
    115 H51        153.3970   152.4060   140.5790 ha         1 08I       0.193000
    116 H52        158.0750   156.3100   138.6800 ha         1 08I       0.196000
    117 H53        161.2520   146.6870   141.3650 hc         1 08I       0.051367
    118 H54        159.7190   146.8750   142.2030 hc         1 08I       0.051367
    119 H55        159.7450   146.3350   140.5300 hc         1 08I       0.051367
    120 H56        154.0010   147.2160   141.9070 hc         1 08I       0.053700
    121 H57        155.6760   146.8480   141.5140 hc         1 08I       0.053700
    122 H58        155.2680   147.5200   143.0830 hc         1 08I       0.053700
    123 H59        152.7560   154.9730   140.9280 hc         1 08I       0.045700
    124 H60        152.7970   155.9930   139.4970 hc         1 08I       0.045700
    125 H61        152.4240   154.2800   139.3480 hc         1 08I       0.045700
    126 H62        160.5890   157.1010   139.0880 hc         1 08I       0.055700
    127 H63        161.8750   156.4800   138.0550 hc         1 08I       0.055700
    128 H64        160.2480   156.7070   137.4130 hc         1 08I       0.055700
    129 H65        158.6250   151.1820   140.1130 hn         1 08I       0.406000
    130 H66        157.1140   152.8180   139.8030 hn         1 08I       0.572000
    131 CMB        155.0260   147.5610   142.0190 c3         1 08I      -0.042900
@<TRIPOS>BOND
     1     1     7 1   
     2     1    65 1   
     3     1    66 1   
     4     1    67 1   
     5     2     7 1   
     6     2    38 1   
     7     2    68 1   
     8     2    69 1   
     9     3     4 2   
    10     3    38 1   
    11     3    70 1   
    12     4     5 1   
    13     4     9 1   
    14     5     8 1   
    15     5    71 1   
    16     5    72 1   
    17     6    24 1   
    18     6    61 1   
    19     6    73 1   
    20     6    74 1   
    21     7    24 2   
    22     8    12 1   
    23     8    75 1   
    24     8    76 1   
    25     9    77 1   
    26     9    78 1   
    27     9    79 1   
    28    10    21 1   
    29    10    35 2   
    30    11    23 2   
    31    11    37 1   
    32    12    13 2   
    33    12    80 1   
    34    13    14 1   
    35    13    15 1   
    36    14    81 1   
    37    14    82 1   
    38    14    83 1   
    39    15    16 1   
    40    15    84 1   
    41    15    85 1   
    42    16    17 1   
    43    16    86 1   
    44    16    87 1   
    45    17    18 2   
    46    17    88 1   
    47    18    19 1   
    48    18    25 1   
    49    19    89 1   
    50    19    90 1   
    51    19    91 1   
    52    20    26 2   
    53    20    50 1   
    54    20    57 1   
    55    21    27 1   
    56    21    51 2   
    57    22    28 1   
    58    22    52 2   
    59    22    58 1   
    60    23    29 1   
    61    23    53 1   
    62    24    92 1   
    63    25    93 1   
    64    25    94 1   
    65    25    95 1   
    66    26    30 1   
    67    26    39 1   
    68    27    31 2   
    69    27   131 1   
    70    28    32 2   
    71    28    55 1   
    72    29    33 2   
    73    29    56 1   
    74    30    34 2   
    75    30    54 1   
    76    31    35 1   
    77    31    40 1   
    78    32    36 1   
    79    32    41 1   
    80    33    37 1   
    81    33    42 1   
    82    34    51 1   
    83    34    57 1   
    84    35    52 1   
    85    36    53 2   
    86    36    58 1   
    87    37    50 2   
    88    38    96 1   
    89    38    97 1   
    90    39    43 1   
    91    39    98 1   
    92    39    99 1   
    93    40    44 1   
    94    40    63 2   
    95    41    45 1   
    96    41   100 1   
    97    41   101 1   
    98    42    46 1   
    99    42    64 2   
   100    43    48 1   
   101    43   102 1   
   102    43   103 1   
   103    44   104 1   
   104    44   105 1   
   105    44   106 1   
   106    45   107 1   
   107    45   108 1   
   108    45   109 1   
   109    46    49 1   
   110    46    50 1   
   111    46   110 1   
   112    47    62 1   
   113    47   111 1   
   114    47   112 1   
   115    47   113 1   
   116    48    59 2   
   117    48    61 1   
   118    49    60 2   
   119    49    62 1   
   120    51   114 1   
   121    52   115 1   
   122    53   116 1   
   123    54   117 1   
   124    54   118 1   
   125    54   119 1   
   126    55   123 1   
   127    55   124 1   
   128    55   125 1   
   129    56   126 1   
   130    56   127 1   
   131    56   128 1   
   132    57   129 1   
   133    58   130 1   
   134   120   131 1   
   135   121   131 1   
   136   122   131 1   
@<TRIPOS>SUBSTRUCTURE
     1 08I         1 TEMP              0 ****  ****    0 ROOT
