@<TRIPOS>MOLECULE
08I
  131   136     1     0     0
SMALL
No Charge or Current Charge


@<TRIPOS>ATOM
      1 C4         168.0250   144.8780   139.0880 c3         1 08I      -0.064900
      2 C5         166.1890   143.2050   138.5410 c3         1 08I      -0.045200
      3 C7         166.1010   141.3910   136.7630 c2         1 08I      -0.223200
      4 C8         166.8490   140.2850   136.9440 c2         1 08I      -0.110400
      5 C10        166.3510   138.9030   136.5450 c3         1 08I      -0.039200
      6 C1         165.8200   147.0710   139.3010 c3         1 08I       0.208800
      7 C3         166.5350   144.6500   138.8680 c2         1 08I      -0.069400
      8 C11        165.8480   138.0690   137.7430 c3         1 08I      -0.035200
      9 C9         168.2560   140.2660   137.5290 c3         1 08I      -0.055900
     10 NB         156.2860   151.5320   141.5220 nc         1 08I      -0.650300
     11 ND         159.1310   152.2560   138.3660 nc         1 08I      -0.730000
     12 C12        165.3280   136.7080   137.3160 c2         1 08I      -0.221200
     13 C13        166.0320   135.5680   137.1750 c2         1 08I      -0.111400
     14 C14        167.5360   135.4390   137.3870 c3         1 08I      -0.054900
     15 C15        165.3750   134.2630   136.7450 c3         1 08I      -0.038200
     16 C16        165.1970   133.2590   137.9040 c3         1 08I      -0.035200
     17 C17        164.5000   131.9860   137.4580 c2         1 08I      -0.224200
     18 C18        165.0680   130.8800   136.9420 c2         1 08I      -0.112400
     19 C19        164.2590   129.6550   136.5580 c3         1 08I      -0.055400
     20 C1A        160.6060   150.9890   140.8060 cc         1 08I      -0.022800
     21 C1B        156.4370   150.6640   142.5780 cc         1 08I       0.155600
     22 C1C        155.0290   153.2200   139.2740 cc         1 08I       0.089000
     23 C1D        159.0590   153.3060   137.5290 cd         1 08I       0.285800
     24 C2         165.5950   145.6070   138.9680 c2         1 08I      -0.273200
     25 C20        166.5540   130.6980   136.6700 c3         1 08I      -0.055400
     26 C2A        161.1490   150.0720   141.6940 cd         1 08I      -0.089300
     27 C2B        155.1560   150.3260   143.1240 cc         1 08I      -0.046200
     28 C2C        154.4720   154.1460   138.3490 cc         1 08I      -0.108200
     29 C2D        160.3340   153.9580   137.3160 cd         1 08I       0.010700
     30 C3A        160.1900   149.7380   142.6340 cc         1 08I      -0.095300
     31 C3B        154.2170   150.9920   142.3680 cd         1 08I      -0.301800
     32 C3C        155.4180   154.3820   137.3810 cd         1 08I      -0.082200
     33 C3D        161.1530   153.2140   138.1030 cc         1 08I      -0.260600
     34 C4A        158.9950   150.3640   142.3470 cd         1 08I      -0.016800
     35 C4B        154.9730   151.7510   141.4100 cd         1 08I       0.457900
     36 C4C        156.5560   153.6460   137.6740 cc         1 08I       0.039000
     37 C4D        160.4530   152.2090   138.7040 cc         1 08I       0.264000
     38 C6         166.4840   142.8270   137.0730 c3         1 08I      -0.035200
     39 CAA        162.5180   149.4240   141.6310 c3         1 08I      -0.011100
     40 CAB        152.7370   150.8650   142.5610 c          1 08I       0.599300
     41 CAC        155.2440   155.3300   136.2110 c3         1 08I      -0.020200
     42 CAD        162.5140   153.2310   138.5840 c          1 08I       0.624700
     43 CBA        162.5190   148.1980   140.6890 c3         1 08I      -0.139400
     44 CBB        151.7510   151.4930   141.5780 c3         1 08I      -0.195100
     45 CBC        155.7080   156.7610   136.5400 c3         1 08I      -0.088100
     46 CBD        162.5970   152.0200   139.5430 c5         1 08I      -0.182500
     47 CED        163.9220   149.9670   136.7010 c3         1 08I       0.144900
     48 CGA        163.8750   147.4910   140.6750 c          1 08I       0.603100
     49 CGD        163.5670   151.0960   138.8030 c          1 08I       0.601100
     50 CHA        161.1130   151.4470   139.6160 cf         1 08I      -0.049400
     51 CHB        157.6740   150.2100   142.9670 cf         1 08I      -0.191200
     52 CHC        154.4810   152.7220   140.4210 cf         1 08I      -0.210600
     53 CHD        157.7570   153.7470   137.0290 cf         1 08I      -0.168800
     54 CMA        160.4090   148.7550   143.7650 c3         1 08I      -0.037800
     55 CMC        153.0910   154.7420   138.4970 c3         1 08I      -0.032900
     56 CMD        160.6320   155.1950   136.5110 c3         1 08I      -0.046800
     57 NA         159.2960   151.0960   141.2270 na         1 08I      -0.128000
     58 NC         156.2800   152.9050   138.8130 na         1 08I      -0.517000
     59 O1A        164.2720   146.7790   141.5870 o          1 08I      -0.483000
     60 O1D        164.6710   150.7710   139.2140 o          1 08I      -0.469000
     61 O2A        164.5420   147.6990   139.4970 os         1 08I      -0.451100
     62 O2D        163.1080   150.8010   137.5440 os         1 08I      -0.430100
     63 OBB        152.2660   150.2280   143.4940 o          1 08I      -0.524100
     64 OBD        163.3490   154.1000   138.3730 o          1 08I      -0.495100
     65 H1         168.4030   144.2470   139.9010 hc         1 08I       0.047033
     66 H2         168.6020   144.6390   138.1880 hc         1 08I       0.047033
     67 H3         168.2590   145.9150   139.3500 hc         1 08I       0.047033
     68 H4         166.7260   142.5230   139.2110 hc         1 08I       0.049200
     69 H5         165.1230   143.0270   138.7260 hc         1 08I       0.049200
     70 H6         165.1020   141.2990   136.3330 ha         1 08I       0.166000
     71 H7         165.5240   138.9970   135.8310 hc         1 08I       0.045700
     72 H8         167.1380   138.3510   136.0180 hc         1 08I       0.045700
     73 H9         166.4530   147.1780   140.1930 h1         1 08I       0.066700
     74 H10        166.3450   147.5490   138.4640 h1         1 08I       0.066700
     75 H11        166.6530   137.9570   138.4790 hc         1 08I       0.046200
     76 H12        165.0530   138.6230   138.2560 hc         1 08I       0.046200
     77 H13        168.3070   139.6350   138.4240 hc         1 08I       0.039700
     78 H14        168.9770   139.8710   136.8040 hc         1 08I       0.039700
     79 H15        168.6080   141.2600   137.8260 hc         1 08I       0.039700
     80 H16        164.2520   136.7020   137.1290 ha         1 08I       0.164000
     81 H17        168.0210   135.0070   136.5030 hc         1 08I       0.038700
     82 H18        168.0230   136.4020   137.5730 hc         1 08I       0.038700
     83 H19        167.7640   134.7910   138.2410 hc         1 08I       0.038700
     84 H20        164.3840   134.4660   136.3200 hc         1 08I       0.045200
     85 H21        165.9530   133.7930   135.9400 hc         1 08I       0.045200
     86 H22        166.1730   133.0270   138.3450 hc         1 08I       0.045200
     87 H23        164.6160   133.7360   138.7040 hc         1 08I       0.045200
     88 H24        163.4190   132.0150   137.6090 ha         1 08I       0.164000
     89 H25        164.3650   129.4290   135.4900 hc         1 08I       0.038367
     90 H26        164.5870   128.7720   137.1210 hc         1 08I       0.038367
     91 H27        163.1900   129.7930   136.7590 hc         1 08I       0.038367
     92 H28        164.5490   145.3530   138.7920 ha         1 08I       0.174000
     93 H29        167.1420   131.5960   136.8880 hc         1 08I       0.038367
     94 H30        166.9670   129.8820   137.2750 hc         1 08I       0.038367
     95 H31        166.7310   130.4510   135.6160 hc         1 08I       0.038367
     96 H32        165.9330   143.5060   136.4120 hc         1 08I       0.045200
     97 H33        167.5450   142.9960   136.8540 hc         1 08I       0.045200
     98 H34        162.8330   149.0970   142.6290 hc         1 08I       0.070700
     99 H35        163.2870   150.1390   141.3320 hc         1 08I       0.070700
    100 H36        155.7920   154.9660   135.3340 hc         1 08I       0.049200
    101 H37        154.1950   155.3600   135.8950 hc         1 08I       0.049200
    102 H38        162.2700   148.5370   139.6770 hc         1 08I       0.072200
    103 H39        161.7610   147.4880   141.0400 hc         1 08I       0.072200
    104 H40        150.7390   151.0920   141.7010 hc         1 08I       0.061700
    105 H41        151.7320   152.5750   141.7460 hc         1 08I       0.061700
    106 H42        152.1090   151.3710   140.5500 hc         1 08I       0.061700
    107 H43        155.5680   157.4180   135.6730 hc         1 08I       0.038033
    108 H44        155.1320   157.1700   137.3790 hc         1 08I       0.038033
    109 H45        156.7700   156.7720   136.8130 hc         1 08I       0.038033
    110 H46        163.0450   152.3300   140.4910 hc         1 08I       0.114700
    111 H47        163.4360   149.8180   135.7280 h1         1 08I       0.052033
    112 H48        164.9040   150.4260   136.5230 h1         1 08I       0.052033
    113 H49        164.0770   148.9810   137.1570 h1         1 08I       0.052033
    114 H50        157.6570   149.5470   143.8230 ha         1 08I       0.194000
    115 H51        153.5140   153.1490   140.6420 ha         1 08I       0.193000
    116 H52        157.8020   154.4420   136.1950 ha         1 08I       0.196000
    117 H53        161.2760   149.0440   144.3700 hc         1 08I       0.051367
    118 H54        159.5560   148.6950   144.4470 hc         1 08I       0.051367
    119 H55        160.5910   147.7470   143.3740 hc         1 08I       0.051367
    120 H56        154.3400   148.5100   143.9670 hc         1 08I       0.053700
    121 H57        155.8500   148.9910   144.7300 hc         1 08I       0.053700
    122 H58        154.3810   149.8790   145.0920 hc         1 08I       0.053700
    123 H59        152.9640   155.1920   139.4890 hc         1 08I       0.045700
    124 H60        152.8980   155.5300   137.7610 hc         1 08I       0.045700
    125 H61        152.3200   153.9720   138.3730 hc         1 08I       0.045700
    126 H62        160.1130   156.0660   136.9270 hc         1 08I       0.055700
    127 H63        161.7050   155.4170   136.5000 hc         1 08I       0.055700
    128 H64        160.3070   155.0720   135.4710 hc         1 08I       0.055700
    129 H65        158.5980   151.6370   140.7330 hn         1 08I       0.406000
    130 H66        156.9390   152.2730   139.2630 hn         1 08I       0.572000
    131 CMB        154.9300   149.3770   144.2860 c3         1 08I      -0.042900
@<TRIPOS>BOND
     1     1     7 1   
     2     1    65 1   
     3     1    66 1   
     4     1    67 1   
     5     2     7 1   
     6     2    38 1   
     7     2    68 1   
     8     2    69 1   
     9     3     4 2   
    10     3    38 1   
    11     3    70 1   
    12     4     5 1   
    13     4     9 1   
    14     5     8 1   
    15     5    71 1   
    16     5    72 1   
    17     6    24 1   
    18     6    61 1   
    19     6    73 1   
    20     6    74 1   
    21     7    24 2   
    22     8    12 1   
    23     8    75 1   
    24     8    76 1   
    25     9    77 1   
    26     9    78 1   
    27     9    79 1   
    28    10    21 1   
    29    10    35 2   
    30    11    23 2   
    31    11    37 1   
    32    12    13 2   
    33    12    80 1   
    34    13    14 1   
    35    13    15 1   
    36    14    81 1   
    37    14    82 1   
    38    14    83 1   
    39    15    16 1   
    40    15    84 1   
    41    15    85 1   
    42    16    17 1   
    43    16    86 1   
    44    16    87 1   
    45    17    18 2   
    46    17    88 1   
    47    18    19 1   
    48    18    25 1   
    49    19    89 1   
    50    19    90 1   
    51    19    91 1   
    52    20    26 2   
    53    20    50 1   
    54    20    57 1   
    55    21    27 1   
    56    21    51 2   
    57    22    28 1   
    58    22    52 2   
    59    22    58 1   
    60    23    29 1   
    61    23    53 1   
    62    24    92 1   
    63    25    93 1   
    64    25    94 1   
    65    25    95 1   
    66    26    30 1   
    67    26    39 1   
    68    27    31 2   
    69    27   131 1   
    70    28    32 2   
    71    28    55 1   
    72    29    33 2   
    73    29    56 1   
    74    30    34 2   
    75    30    54 1   
    76    31    35 1   
    77    31    40 1   
    78    32    36 1   
    79    32    41 1   
    80    33    37 1   
    81    33    42 1   
    82    34    51 1   
    83    34    57 1   
    84    35    52 1   
    85    36    53 2   
    86    36    58 1   
    87    37    50 2   
    88    38    96 1   
    89    38    97 1   
    90    39    43 1   
    91    39    98 1   
    92    39    99 1   
    93    40    44 1   
    94    40    63 2   
    95    41    45 1   
    96    41   100 1   
    97    41   101 1   
    98    42    46 1   
    99    42    64 2   
   100    43    48 1   
   101    43   102 1   
   102    43   103 1   
   103    44   104 1   
   104    44   105 1   
   105    44   106 1   
   106    45   107 1   
   107    45   108 1   
   108    45   109 1   
   109    46    49 1   
   110    46    50 1   
   111    46   110 1   
   112    47    62 1   
   113    47   111 1   
   114    47   112 1   
   115    47   113 1   
   116    48    59 2   
   117    48    61 1   
   118    49    60 2   
   119    49    62 1   
   120    51   114 1   
   121    52   115 1   
   122    53   116 1   
   123    54   117 1   
   124    54   118 1   
   125    54   119 1   
   126    55   123 1   
   127    55   124 1   
   128    55   125 1   
   129    56   126 1   
   130    56   127 1   
   131    56   128 1   
   132    57   129 1   
   133    58   130 1   
   134   120   131 1   
   135   121   131 1   
   136   122   131 1   
@<TRIPOS>SUBSTRUCTURE
     1 08I         1 TEMP              0 ****  ****    0 ROOT
