@<TRIPOS>MOLECULE
08J
   36    39     1     0     0
SMALL
No Charge or Current Charge


@<TRIPOS>ATOM
      1 CAU          0.0590     0.5040    -0.4710 ca         1 08J      -0.171900
      2 CAK         -0.8670     1.5730    -0.4920 ca         1 08J      -0.065000
      3 CAP         -0.4550     2.8850    -0.2160 ca         1 08J       0.110000
      4 ClAC        -1.6250     4.1970    -0.2480 cl         1 08J      -0.186000
      5 CAH          0.8900     3.1530     0.0700 ca         1 08J      -0.078000
      6 CAI          1.8230     2.1040     0.0910 ca         1 08J      -0.115000
      7 CAV          1.4180     0.7750    -0.1600 ca         1 08J       0.035800
      8 NAW          2.3610    -0.2570    -0.1390 na         1 08J      -0.083300
      9 CAR          3.3060    -0.4950     0.8390 cc         1 08J       0.436800
     10 CAA          3.5050     0.2870     2.1080 c3         1 08J      -0.124400
     11 NAN          3.9960    -1.5830     0.5160 nd         1 08J      -0.671000
     12 CAJ          3.4450    -2.0500    -0.6710 cd         1 08J       0.267900
     13 CAS          2.4060    -1.2490    -1.0780 cc         1 08J      -0.213300
     14 CAL          1.4620    -1.3690    -2.2350 c3         1 08J       0.178100
     15 NAM          0.1170    -1.6250    -1.7100 n2         1 08J      -0.557900
     16 CAO         -0.4350    -0.8810    -0.7950 ce         1 08J       0.530500
     17 CAT         -1.7490    -1.3080    -0.2210 ca         1 08J      -0.183900
     18 CAG         -2.6760    -2.0320    -1.0070 ca         1 08J      -0.047000
     19 CAE         -3.8960    -2.4620    -0.4560 ca         1 08J      -0.134000
     20 CAD         -4.1980    -2.1960     0.8890 ca         1 08J      -0.070000
     21 CAF         -3.2700    -1.5070     1.6860 ca         1 08J      -0.158000
     22 CAQ         -2.0520    -1.0750     1.1380 ca         1 08J       0.194000
     23 FAB         -1.1630    -0.4560     1.9470 f          1 08J      -0.173000
     24 H1          -1.9120     1.3900    -0.7300 ha         1 08J       0.141000
     25 H2           1.2100     4.1730     0.2690 ha         1 08J       0.137000
     26 H3           2.8670     2.3340     0.2900 ha         1 08J       0.134000
     27 H4           2.5520     0.6660     2.4920 hc         1 08J       0.058033
     28 H5           3.9500    -0.3430     2.8870 hc         1 08J       0.058033
     29 H6           4.1750     1.1370     1.9390 hc         1 08J       0.058033
     30 H7           3.8110    -2.9510    -1.1490 h4         1 08J       0.043100
     31 H8           1.4880    -0.4450    -2.8290 h1         1 08J       0.071200
     32 H9           1.7880    -2.1920    -2.8860 h1         1 08J       0.071200
     33 H10         -2.4610    -2.2520    -2.0510 ha         1 08J       0.130000
     34 H11         -4.6070    -3.0070    -1.0740 ha         1 08J       0.122000
     35 H12         -5.1420    -2.5320     1.3140 ha         1 08J       0.120000
     36 H13         -3.4880    -1.3150     2.7330 ha         1 08J       0.135000
@<TRIPOS>BOND
     1     1     2 ar  
     2     1     7 ar  
     3     1    16 1   
     4     2     3 ar  
     5     2    24 1   
     6     3     4 1   
     7     3     5 ar  
     8     5     6 ar  
     9     5    25 1   
    10     6     7 ar  
    11     6    26 1   
    12     7     8 1   
    13     8     9 1   
    14     8    13 1   
    15     9    10 1   
    16     9    11 2   
    17    10    27 1   
    18    10    28 1   
    19    10    29 1   
    20    11    12 1   
    21    12    13 2   
    22    12    30 1   
    23    13    14 1   
    24    14    15 1   
    25    14    31 1   
    26    14    32 1   
    27    15    16 2   
    28    16    17 1   
    29    17    18 ar  
    30    17    22 ar  
    31    18    19 ar  
    32    18    33 1   
    33    19    20 ar  
    34    19    34 1   
    35    20    21 ar  
    36    20    35 1   
    37    21    22 ar  
    38    21    36 1   
    39    22    23 1   
@<TRIPOS>SUBSTRUCTURE
     1 08J         1 TEMP              0 ****  ****    0 ROOT
