@<TRIPOS>MOLECULE
08J
   36    39     1     0     0
SMALL
bcc


@<TRIPOS>ATOM
      1 CAU          0.0560     0.4540    -0.4580 ca         1 08J      -0.171900
      2 CAK         -0.8690     1.4950    -0.5010 ca         1 08J      -0.083000
      3 CAP         -0.4740     2.7920    -0.2380 ca         1 08J       0.018400
      4 CLAC        -1.6400     4.0670    -0.3090 cl         1 08J      -0.094400
      5 CAH          0.8440     3.0840     0.0770 ca         1 08J      -0.096000
      6 CAI          1.7690     2.0580     0.1160 ca         1 08J      -0.133000
      7 CAV          1.3870     0.7450    -0.1370 ca         1 08J       0.035800
      8 NAW          2.3430    -0.2840    -0.0890 na         1 08J      -0.134000
      9 CAR          3.3360    -0.4960     0.8290 cc         1 08J       0.436800
     10 CAA          3.5460     0.3280     2.0480 c3         1 08J      -0.124400
     11 NAN          4.0490    -1.5390     0.4970 nd         1 08J      -0.671000
     12 CAJ          3.5140    -2.0270    -0.6640 cd         1 08J       0.333200
     13 CAS          2.4550    -1.2690    -1.0500 cc         1 08J      -0.227900
     14 CAL          1.4360    -1.3720    -2.1210 c3         1 08J       0.178100
     15 NAM          0.1590    -1.7460    -1.5350 n2         1 08J      -0.557900
     16 CAO         -0.4270    -0.9160    -0.7750 ce         1 08J       0.530500
     17 CAT         -1.7410    -1.3170    -0.2160 ca         1 08J      -0.183900
     18 CAG         -2.6920    -1.9450    -1.0180 ca         1 08J      -0.065000
     19 CAE         -3.9160    -2.3370    -0.4990 ca         1 08J      -0.152000
     20 CAD         -4.2000    -2.1180     0.8430 ca         1 08J      -0.088000
     21 CAF         -3.2640    -1.5090     1.6670 ca         1 08J      -0.176000
     22 CAQ         -2.0570    -1.1210     1.1220 ca         1 08J       0.158900
     23 FAB         -1.1420    -0.5550     1.9240 f          1 08J      -0.137900
     24 H1          -1.9010     1.2850    -0.7480 ha         1 08J       0.159000
     25 H2           1.1550     4.1010     0.2730 ha         1 08J       0.155000
     26 H3           2.8020     2.2920     0.3280 ha         1 08J       0.152000
     27 H4           2.6040     0.6220     2.5130 hc         1 08J       0.058033
     28 H5           4.1160    -0.2520     2.7700 hc         1 08J       0.058033
     29 H6           4.1100     1.2380     1.8390 hc         1 08J       0.058033
     30 H7           3.9110    -2.9010    -1.1570 h4         1 08J       0.043100
     31 H8           1.3560    -0.4300    -2.6790 h1         1 08J       0.071200
     32 H9           1.7350    -2.1400    -2.8330 h1         1 08J       0.071200
     33 H10         -2.4660    -2.1100    -2.0630 ha         1 08J       0.148000
     34 H11         -4.6470    -2.8110    -1.1390 ha         1 08J       0.140000
     35 H12         -5.1510    -2.4250     1.2560 ha         1 08J       0.138000
     36 H13         -3.4630    -1.3450     2.7180 ha         1 08J       0.153000
@<TRIPOS>BOND
     1     1     2 ar  
     2     1     7 ar  
     3     1    16 1   
     4     2     3 ar  
     5     2    24 1   
     6     3     4 1   
     7     3     5 ar  
     8     5     6 ar  
     9     5    25 1   
    10     6     7 ar  
    11     6    26 1   
    12     7     8 1   
    13     8     9 1   
    14     8    13 1   
    15     9    10 1   
    16     9    11 2   
    17    10    27 1   
    18    10    28 1   
    19    10    29 1   
    20    11    12 1   
    21    12    13 2   
    22    12    30 1   
    23    13    14 1   
    24    14    15 1   
    25    14    31 1   
    26    14    32 1   
    27    15    16 2   
    28    16    17 1   
    29    17    18 ar  
    30    17    22 ar  
    31    18    19 ar  
    32    18    33 1   
    33    19    20 ar  
    34    19    34 1   
    35    20    21 ar  
    36    20    35 1   
    37    21    22 ar  
    38    21    36 1   
    39    22    23 1   
@<TRIPOS>SUBSTRUCTURE
     1 08J         1 TEMP              0 ****  ****    0 ROOT
