@<TRIPOS>MOLECULE
08K
   37    40     1     0     0
SMALL
abcg2


@<TRIPOS>ATOM
      1 CLA         -2.4080     3.8200    -0.8190 cl         1 08K      -0.182000
      2 CAP         -1.0790     2.7680    -0.4910 ca         1 08K       0.108000
      3 CAJ         -1.2740     1.3990    -0.5200 ca         1 08K      -0.063000
      4 CAS         -0.2110     0.5350    -0.2660 ca         1 08K      -0.177500
      5 CAO         -0.4540    -0.9220    -0.3790 cc         1 08K       0.264000
      6 CAQ         -1.7220    -1.4640     0.1580 ca         1 08K      -0.168500
      7 CAG         -2.3780    -2.5040    -0.5010 ca         1 08K      -0.076500
      8 CAE         -3.5510    -3.0290     0.0150 ca         1 08K      -0.116500
      9 CAC         -4.0770    -2.5310     1.2030 ca         1 08K      -0.092000
     10 CAD         -3.4250    -1.5020     1.8670 ca         1 08K      -0.116500
     11 CAF         -2.2570    -0.9650     1.3450 ca         1 08K      -0.076500
     12 NAL          0.3150    -1.7570    -0.9590 nd         1 08K      -0.248400
     13 NAK          1.5250    -1.2960    -1.4870 na         1 08K      -0.040100
     14 C23          2.0730    -2.2700    -2.4170 c3         1 08K       0.043900
     15 CAT          2.4030    -0.8790    -0.5020 cc         1 08K       0.446000
     16 NAV          2.1220     0.2110     0.2620 na         1 08K      -0.290800
     17 CAR          3.1720     0.2980     1.1410 cc         1 08K       0.410800
     18 CAA          3.2560     1.2320     2.2880 c3         1 08K      -0.123400
     19 NAM          4.0140    -0.6560     0.8840 nd         1 08K      -0.348000
     20 NAN          3.5310    -1.4050    -0.1480 nd         1 08K      -0.368000
     21 CAU          1.0410     1.0770     0.0240 ca         1 08K       0.041800
     22 CAI          1.2300     2.4530     0.0330 ca         1 08K      -0.113000
     23 CAH          0.1700     3.3050    -0.2170 ca         1 08K      -0.078000
     24 H1          -2.2500     0.9980    -0.7530 ha         1 08K       0.146000
     25 H2          -1.9720    -2.8910    -1.4270 ha         1 08K       0.123500
     26 H3          -4.0600    -3.8250    -0.5110 ha         1 08K       0.117500
     27 H4          -4.9920    -2.9440     1.6050 ha         1 08K       0.116000
     28 H5          -3.8250    -1.1140     2.7950 ha         1 08K       0.117500
     29 H6          -1.7550    -0.1660     1.8760 ha         1 08K       0.123500
     30 H7           1.3510    -2.4250    -3.2140 h1         1 08K       0.055033
     31 H8           2.9840    -1.8690    -2.8550 h1         1 08K       0.055033
     32 H9           2.2960    -3.2290    -1.9440 h1         1 08K       0.055033
     33 H10          2.4600     1.0300     3.0060 hc         1 08K       0.061700
     34 H11          4.2110     1.0890     2.7870 hc         1 08K       0.061700
     35 H12          3.1830     2.2780     1.9980 hc         1 08K       0.061700
     36 H13          2.2110     2.8720     0.2060 ha         1 08K       0.135000
     37 H14          0.3280     4.3740    -0.2370 ha         1 08K       0.138000
@<TRIPOS>BOND
     1     1     2 1   
     2     2     3 ar  
     3     2    23 ar  
     4     3     4 ar  
     5     3    24 1   
     6     4     5 1   
     7     4    21 ar  
     8     5     6 1   
     9     5    12 2   
    10     6     7 ar  
    11     6    11 ar  
    12     7     8 ar  
    13     7    25 1   
    14     8     9 ar  
    15     8    26 1   
    16     9    10 ar  
    17     9    27 1   
    18    10    11 ar  
    19    10    28 1   
    20    11    29 1   
    21    12    13 1   
    22    13    14 1   
    23    13    15 1   
    24    14    30 1   
    25    14    31 1   
    26    14    32 1   
    27    15    16 1   
    28    15    20 2   
    29    16    17 1   
    30    16    21 1   
    31    17    18 1   
    32    17    19 2   
    33    18    33 1   
    34    18    34 1   
    35    18    35 1   
    36    19    20 1   
    37    21    22 ar  
    38    22    23 ar  
    39    22    36 1   
    40    23    37 1   
@<TRIPOS>SUBSTRUCTURE
     1 08K         1 TEMP              0 ****  ****    0 ROOT
