@<TRIPOS>MOLECULE
08K
   37    40     1     0     0
SMALL
No Charge or Current Charge


@<TRIPOS>ATOM
      1 ClA         -2.4070     3.8500    -0.9250 cl         1 08K      -0.182000
      2 CAP         -1.0870     2.7580    -0.5270 ca         1 08K       0.108000
      3 CAJ         -1.2720     1.3710    -0.6150 ca         1 08K      -0.063000
      4 CAS         -0.2220     0.4780    -0.2990 ca         1 08K      -0.177500
      5 CAO         -0.4600    -0.9700    -0.4140 cc         1 08K       0.264000
      6 CAQ         -1.7320    -1.4730     0.1380 ca         1 08K      -0.168500
      7 CAG         -2.4280    -2.5490    -0.4650 ca         1 08K      -0.076500
      8 CAE         -3.6180    -3.0400     0.1000 ca         1 08K      -0.116500
      9 CAC         -4.1220    -2.4780     1.2830 ca         1 08K      -0.092000
     10 CAD         -3.4290    -1.4280     1.9060 ca         1 08K      -0.116500
     11 CAF         -2.2400    -0.9350     1.3430 ca         1 08K      -0.076500
     12 NAL          0.2310    -1.7940    -1.2070 nd         1 08K      -0.248400
     13 NAK          1.5830    -1.5100    -1.4080 na         1 08K      -0.040100
     14 C23          2.1520    -2.3410    -2.4890 c3         1 08K       0.043900
     15 CAT          2.4540    -0.7470    -0.6030 cc         1 08K       0.446000
     16 NAV          2.0360     0.1010     0.3700 na         1 08K      -0.290800
     17 CAR          3.1560     0.3620     1.1310 cc         1 08K       0.410800
     18 CAA          3.2260     1.2320     2.3560 c3         1 08K      -0.123400
     19 NAM          4.1660    -0.3700     0.6650 nd         1 08K      -0.348000
     20 NAN          3.7150    -1.0980    -0.4210 nd         1 08K      -0.368000
     21 CAU          1.0130     0.9970     0.1130 ca         1 08K       0.041800
     22 CAI          1.2080     2.3960     0.1710 ca         1 08K      -0.113000
     23 CAH          0.1560     3.2740    -0.1380 ca         1 08K      -0.078000
     24 H1          -2.2380     0.9890    -0.9380 ha         1 08K       0.146000
     25 H2          -2.0610    -3.0040    -1.3830 ha         1 08K       0.123500
     26 H3          -4.1480    -3.8600    -0.3800 ha         1 08K       0.117500
     27 H4          -5.0420    -2.8600     1.7200 ha         1 08K       0.116000
     28 H5          -3.8110    -0.9990     2.8290 ha         1 08K       0.117500
     29 H6          -1.7100    -0.1320     1.8520 ha         1 08K       0.123500
     30 H7           1.3840    -2.5770    -3.2360 h1         1 08K       0.055033
     31 H8           2.9660    -1.8000    -2.9870 h1         1 08K       0.055033
     32 H9           2.5430    -3.2750    -2.0670 h1         1 08K       0.055033
     33 H10          2.2250     1.4810     2.7250 hc         1 08K       0.061700
     34 H11          3.7600     0.7160     3.1620 hc         1 08K       0.061700
     35 H12          3.7600     2.1640     2.1410 hc         1 08K       0.061700
     36 H13          2.1740     2.8180     0.4320 ha         1 08K       0.135000
     37 H14          0.3070     4.3490    -0.0890 ha         1 08K       0.138000
@<TRIPOS>BOND
     1     1     2 1   
     2     2     3 ar  
     3     2    23 ar  
     4     3     4 ar  
     5     3    24 1   
     6     4     5 1   
     7     4    21 ar  
     8     5     6 1   
     9     5    12 2   
    10     6     7 ar  
    11     6    11 ar  
    12     7     8 ar  
    13     7    25 1   
    14     8     9 ar  
    15     8    26 1   
    16     9    10 ar  
    17     9    27 1   
    18    10    11 ar  
    19    10    28 1   
    20    11    29 1   
    21    12    13 1   
    22    13    14 1   
    23    13    15 1   
    24    14    30 1   
    25    14    31 1   
    26    14    32 1   
    27    15    16 1   
    28    15    20 2   
    29    16    17 1   
    30    16    21 1   
    31    17    18 1   
    32    17    19 2   
    33    18    33 1   
    34    18    34 1   
    35    18    35 1   
    36    19    20 1   
    37    21    22 ar  
    38    22    23 ar  
    39    22    36 1   
    40    23    37 1   
@<TRIPOS>SUBSTRUCTURE
     1 08K         1 TEMP              0 ****  ****    0 ROOT
