@<TRIPOS>MOLECULE
08L
   97   100     1     0     0
SMALL
bcc


@<TRIPOS>ATOM
      1 C6         -58.9880    44.4040     8.6470 c          1 08L       0.656300
      2 O7         -58.6790    43.2700     8.2980 o          1 08L      -0.600100
      3 C8         -58.2830    45.5990     8.1170 ce         1 08L      -0.156200
      4 C9         -57.2250    45.5140     7.3180 cf         1 08L      -0.207200
      5 C10        -56.6170    44.2630     6.7630 c          1 08L       0.708300
      6 O11        -56.9020    43.8890     5.6380 o          1 08L      -0.588100
      7 N12        -55.6640    43.7080     7.5330 ns         1 08L      -0.563900
      8 C13        -54.8570    42.5750     7.1320 c3         1 08L       0.034700
      9 C14        -55.3510    41.3340     7.8860 c          1 08L       0.642100
     10 O15        -56.3920    40.7850     7.5660 o          1 08L      -0.528100
     11 C16        -53.3680    42.8840     7.2650 c3         1 08L      -0.086400
     12 C17        -52.8760    44.0260     6.3760 c6         1 08L      -0.055700
     13 C52        -53.0520    43.7390     4.8850 c6         1 08L      -0.074400
     14 C51        -52.4980    44.8670     4.0210 c6         1 08L      -0.072400
     15 C50        -51.0360    45.1560     4.3420 c6         1 08L      -0.074400
     16 C49        -50.8520    45.4490     5.8260 c6         1 08L      -0.072400
     17 C48        -51.4070    44.3190     6.6860 c6         1 08L      -0.074400
     18 N28        -54.6030    40.9080     8.9210 ns         1 08L      -0.593900
     19 C27        -54.9540    39.7420     9.6910 c3         1 08L       0.035700
     20 C25        -55.9950    40.0050    10.7820 c          1 08L       0.666100
     21 O26        -56.6340    39.0710    11.2430 o          1 08L      -0.608100
     22 C29        -53.7000    39.1440    10.3430 c3         1 08L      -0.045100
     23 C30        -52.6900    38.7070     9.3190 ca         1 08L      -0.077300
     24 C47        -52.8920    37.5360     8.5900 ca         1 08L      -0.124000
     25 C43        -51.5570    39.4700     9.0540 ca         1 08L      -0.124000
     26 C46        -51.9850    37.1390     7.6200 ca         1 08L      -0.126500
     27 C44        -50.6450    39.0770     8.0820 ca         1 08L      -0.126500
     28 C45        -50.8580    37.9110     7.3610 ca         1 08L      -0.131000
     29 C21        -57.5930    42.9900    12.0110 c          1 08L       0.673100
     30 O22        -57.0130    43.8720    11.3940 o          1 08L      -0.629100
     31 C23        -56.8800    41.6810    12.3450 c3         1 08L       0.028700
     32 N24        -56.0870    41.2710    11.2110 ns         1 08L      -0.544900
     33 C31        -56.0150    41.9060    13.5930 c3         1 08L      -0.091400
     34 C32        -55.2940    40.6530    14.0680 c3         1 08L      -0.099400
     35 C33        -54.4360    40.9420    15.2950 c3         1 08L       0.100000
     36 N34        -53.7240    39.7750    15.7630 ns         1 08L      -0.549900
     37 C35        -54.2030    38.9390    16.6880 c          1 08L       0.578600
     38 O36        -55.2470    39.1000    17.3030 o          1 08L      -0.598100
     39 C37        -53.3430    37.7370    16.9520 ca         1 08L       0.238500
     40 N38        -52.2270    37.5830    16.2520 nb         1 08L      -0.640000
     41 C39        -51.4940    36.5120    16.5010 ca         1 08L       0.284900
     42 C40        -51.8800    35.5830    17.4600 ca         1 08L       0.299900
     43 N41        -52.9930    35.7310    18.1630 nb         1 08L      -0.638000
     44 C42        -53.7260    36.8060    17.9110 ca         1 08L       0.343900
     45 N5         -59.9500    44.6730     9.5360 ns         1 08L      -0.515900
     46 C3         -60.7380    43.6610    10.1950 c3         1 08L      -0.043300
     47 C2         -62.0880    43.3630     9.4790 c          1 08L       0.930600
     48 O4         -62.3590    44.0220     8.4620 o          1 08L      -0.822300
     49 C18        -60.9550    44.0460    11.6570 c3         1 08L      -0.094400
     50 C19        -59.6660    44.2730    12.4400 c3         1 08L       0.097000
     51 N20        -58.8330    43.0900    12.5050 ns         1 08L      -0.548900
     52 O1         -62.7680    42.4650    10.0130 o          1 08L      -0.822300
     53 H8         -55.5200    44.0790     8.4610 hn         1 08L       0.319500
     54 H9         -55.0900    42.3730     6.0870 h1         1 08L       0.109700
     55 H10        -53.1340    43.1410     8.3050 hc         1 08L       0.038200
     56 H11        -52.8000    41.9790     7.0240 hc         1 08L       0.038200
     57 H12        -53.4520    44.9290     6.6190 hc         1 08L       0.056700
     58 H47        -52.5350    42.8020     4.6400 hc         1 08L       0.040950
     59 H48        -54.1050    43.5850     4.6410 hc         1 08L       0.040950
     60 H45        -53.0920    45.7720     4.1890 hc         1 08L       0.037700
     61 H46        -52.6120    44.6150     2.9630 hc         1 08L       0.037700
     62 H43        -50.4260    44.2890     4.0650 hc         1 08L       0.033200
     63 H44        -50.6740    45.9940     3.7410 hc         1 08L       0.033200
     64 H41        -49.7950    45.6100     6.0550 hc         1 08L       0.037700
     65 H42        -51.3690    46.3820     6.0780 hc         1 08L       0.037700
     66 H39        -51.2940    44.5620     7.7460 hc         1 08L       0.040950
     67 H40        -50.8190    43.4090     6.5130 hc         1 08L       0.040950
     68 H21        -53.7320    41.3710     9.1310 hn         1 08L       0.309500
     69 H20        -55.3920    38.9950     9.0250 h1         1 08L       0.106700
     70 H22        -53.2570    39.8770    11.0230 hc         1 08L       0.059200
     71 H23        -54.0090    38.2920    10.9510 hc         1 08L       0.059200
     72 H38        -53.7670    36.9260     8.7880 ha         1 08L       0.130500
     73 H34        -51.3800    40.3800     9.6170 ha         1 08L       0.130500
     74 H37        -52.1550    36.2250     7.0660 ha         1 08L       0.128500
     75 H35        -49.7690    39.6820     7.8910 ha         1 08L       0.128500
     76 H36        -50.1480    37.6010     6.6050 ha         1 08L       0.127000
     77 H18        -57.6050    40.8910    12.5460 h1         1 08L       0.095700
     78 H19        -55.5160    41.9790    10.7720 hn         1 08L       0.330500
     79 H24        -55.2880    42.6960    13.3820 hc         1 08L       0.048700
     80 H25        -56.6580    42.2810    14.3950 hc         1 08L       0.048700
     81 H26        -56.0200    39.8700    14.3010 hc         1 08L       0.055200
     82 H27        -54.6480    40.2650    13.2750 hc         1 08L       0.055200
     83 H28        -53.7000    41.7130    15.0620 h1         1 08L       0.054700
     84 H29        -55.0510    41.3270    16.1090 h1         1 08L       0.054700
     85 H30        -52.8700    39.5090    15.2940 hn         1 08L       0.335500
     86 H31        -50.5820    36.3810    15.9320 h4         1 08L       0.031100
     87 H32        -51.2720    34.7080    17.6560 h4         1 08L       0.030100
     88 H33        -54.6370    36.9330    18.4820 h4         1 08L       0.057100
     89 H3         -60.2050    45.6370     9.6910 hn         1 08L       0.293500
     90 H2         -60.1540    42.7380    10.1710 h1         1 08L       0.073700
     91 H13        -61.5500    44.9630    11.7190 hc         1 08L       0.054200
     92 H14        -61.5450    43.2630    12.1360 hc         1 08L       0.054200
     93 H15        -59.0790    45.0750    11.9980 h1         1 08L       0.038700
     94 H16        -59.9170    44.5820    13.4570 h1         1 08L       0.038700
     95 H17        -59.2160    42.2920    12.9870 hn         1 08L       0.314500
     96 H4         -58.6440    46.5810     8.4040 ha         1 08L       0.120000
     97 H6         -56.7610    46.4280     6.9630 ha         1 08L       0.123000
@<TRIPOS>BOND
     1     1     2 2   
     2     1     3 1   
     3     1    45 1   
     4     3     4 2   
     5     3    96 1   
     6     4     5 1   
     7     4    97 1   
     8     5     6 2   
     9     5     7 1   
    10     7     8 1   
    11     7    53 1   
    12     8     9 1   
    13     8    11 1   
    14     8    54 1   
    15     9    10 2   
    16     9    18 1   
    17    11    12 1   
    18    11    55 1   
    19    11    56 1   
    20    12    13 1   
    21    12    17 1   
    22    12    57 1   
    23    13    14 1   
    24    13    58 1   
    25    13    59 1   
    26    14    15 1   
    27    14    60 1   
    28    14    61 1   
    29    15    16 1   
    30    15    62 1   
    31    15    63 1   
    32    16    17 1   
    33    16    64 1   
    34    16    65 1   
    35    17    66 1   
    36    17    67 1   
    37    18    19 1   
    38    18    68 1   
    39    19    20 1   
    40    19    22 1   
    41    19    69 1   
    42    20    21 2   
    43    20    32 1   
    44    22    23 1   
    45    22    70 1   
    46    22    71 1   
    47    23    24 ar  
    48    23    25 ar  
    49    24    26 ar  
    50    24    72 1   
    51    25    27 ar  
    52    25    73 1   
    53    26    28 ar  
    54    26    74 1   
    55    27    28 ar  
    56    27    75 1   
    57    28    76 1   
    58    29    30 2   
    59    29    31 1   
    60    29    51 1   
    61    31    32 1   
    62    31    33 1   
    63    31    77 1   
    64    32    78 1   
    65    33    34 1   
    66    33    79 1   
    67    33    80 1   
    68    34    35 1   
    69    34    81 1   
    70    34    82 1   
    71    35    36 1   
    72    35    83 1   
    73    35    84 1   
    74    36    37 1   
    75    36    85 1   
    76    37    38 2   
    77    37    39 1   
    78    39    40 ar  
    79    39    44 ar  
    80    40    41 ar  
    81    41    42 ar  
    82    41    86 1   
    83    42    43 ar  
    84    42    87 1   
    85    43    44 ar  
    86    44    88 1   
    87    45    46 1   
    88    45    89 1   
    89    46    47 1   
    90    46    49 1   
    91    46    90 1   
    92    47    48 1   
    93    47    52 1   
    94    49    50 1   
    95    49    91 1   
    96    49    92 1   
    97    50    51 1   
    98    50    93 1   
    99    50    94 1   
   100    51    95 1   
@<TRIPOS>SUBSTRUCTURE
     1 08L         1 TEMP              0 ****  ****    0 ROOT
