@<TRIPOS>MOLECULE
08L
   97   100     1     0     0
SMALL
No Charge or Current Charge


@<TRIPOS>ATOM
      1 C6         -59.0870    43.9510     8.5130 c          1 08L       0.589300
      2 O7         -58.3130    43.1010     8.9150 o          1 08L      -0.600100
      3 C8         -59.0890    44.5170     7.1200 ce         1 08L      -0.206200
      4 C9         -58.2480    44.3290     6.0390 cf         1 08L      -0.257200
      5 C10        -56.9850    43.5440     5.8620 c          1 08L       0.641300
      6 O11        -56.4640    43.4530     4.7620 o          1 08L      -0.588100
      7 N12        -56.4290    42.9600     6.9660 ns         1 08L      -0.496900
      8 C13        -55.1630    42.1900     7.0230 c3         1 08L       0.034700
      9 C14        -55.3960    40.9240     7.9100 c          1 08L       0.575100
     10 O15        -56.4860    40.3750     7.9990 o          1 08L      -0.528100
     11 C16        -53.9660    43.0800     7.4850 c3         1 08L      -0.086400
     12 C17        -53.6090    44.3050     6.5860 c6         1 08L      -0.055700
     13 C52        -53.0520    43.8730     5.1970 c6         1 08L      -0.074400
     14 C51        -52.6960    45.1000     4.3220 c6         1 08L      -0.072400
     15 C50        -51.6900    46.0300     5.0420 c6         1 08L      -0.074400
     16 C49        -52.2260    46.4620     6.4280 c6         1 08L      -0.072400
     17 C48        -52.5850    45.2330     7.2990 c6         1 08L      -0.074400
     18 N28        -54.3150    40.4530     8.6330 ns         1 08L      -0.526900
     19 C27        -54.4020    39.3390     9.6110 c3         1 08L       0.035700
     20 C25        -55.1750    39.7660    10.8950 c          1 08L       0.599100
     21 O26        -55.7890    38.9660    11.5880 o          1 08L      -0.608100
     22 C29        -52.9990    38.7890     9.9560 c3         1 08L      -0.045100
     23 C30        -52.1780    38.4500     8.7160 ca         1 08L      -0.077300
     24 C47        -52.5240    37.3390     7.9210 ca         1 08L      -0.106000
     25 C43        -51.0780    39.2490     8.3460 ca         1 08L      -0.106000
     26 C46        -51.7790    37.0330     6.7680 ca         1 08L      -0.108500
     27 C44        -50.3340    38.9430     7.1930 ca         1 08L      -0.108500
     28 C45        -50.6850    37.8340     6.4040 ca         1 08L      -0.113000
     29 C21        -56.3950    43.2260    11.6320 c          1 08L       0.606100
     30 O22        -55.7040    43.8320    10.8200 o          1 08L      -0.629100
     31 C23        -56.0080    41.8170    12.1710 c3         1 08L       0.028700
     32 N24        -55.1970    41.1250    11.1450 ns         1 08L      -0.477900
     33 C31        -55.2490    41.9520    13.5210 c3         1 08L      -0.091400
     34 C32        -54.8780    40.6170    14.2070 c3         1 08L      -0.099400
     35 C33        -54.2170    40.8170    15.5870 c3         1 08L       0.100000
     36 N34        -53.8450    39.5450    16.2100 ns         1 08L      -0.482900
     37 C35        -54.7150    38.6820    16.8510 c          1 08L       0.511600
     38 O36        -55.9050    38.9500    16.9760 o          1 08L      -0.598100
     39 C37        -54.0890    37.4000    17.3830 ca         1 08L       0.238500
     40 N38        -52.7420    37.1720    17.2080 nb         1 08L      -0.640000
     41 C39        -52.2700    35.9990    17.7170 ca         1 08L       0.284900
     42 C40        -53.1100    35.0700    18.3850 ca         1 08L       0.299900
     43 N41        -54.4430    35.2870    18.5620 nb         1 08L      -0.638000
     44 C42        -54.9190    36.4610    18.0540 ca         1 08L       0.343900
     45 N5         -60.0810    44.4630     9.3210 ns         1 08L      -0.448900
     46 C3         -60.3380    44.0670    10.7300 c3         1 08L      -0.043300
     47 C2         -61.8730    43.9500    10.9810 c          1 08L       0.720000
     48 O4         -62.5900    44.8880    10.6550 o          1 08L      -0.717000
     49 C18        -59.6740    45.0390    11.7440 c3         1 08L      -0.094400
     50 C19        -58.1310    45.0460    11.7380 c3         1 08L       0.097000
     51 N20        -57.5620    43.7570    12.1410 ns         1 08L      -0.481900
     52 O1         -62.3070    42.8940    11.4200 o          1 08L      -0.717000
     53 H8         -56.9660    43.0470     7.8230 hn         1 08L       0.319500
     54 H9         -54.9360    41.7970     6.0240 h1         1 08L       0.109700
     55 H10        -54.1860    43.4310     8.5010 hc         1 08L       0.038200
     56 H11        -53.0660    42.4580     7.5690 hc         1 08L       0.038200
     57 H12        -54.5340    44.8790     6.4370 hc         1 08L       0.056700
     58 H47        -52.1570    43.2490     5.3320 hc         1 08L       0.040950
     59 H48        -53.7810    43.2520     4.6630 hc         1 08L       0.040950
     60 H45        -53.6110    45.6590     4.0810 hc         1 08L       0.037700
     61 H46        -52.2740    44.7650     3.3640 hc         1 08L       0.037700
     62 H43        -50.7290    45.5120     5.1620 hc         1 08L       0.033200
     63 H44        -51.4930    46.9170     4.4240 hc         1 08L       0.033200
     64 H41        -51.4750    47.0770     6.9420 hc         1 08L       0.037700
     65 H42        -53.1140    47.0970     6.3000 hc         1 08L       0.037700
     66 H39        -52.9940    45.5760     8.2590 hc         1 08L       0.040950
     67 H40        -51.6700    44.6700     7.5340 hc         1 08L       0.040950
     68 H21        -53.4190    40.9000     8.4780 hn         1 08L       0.309500
     69 H20        -54.9870    38.5290     9.1550 h1         1 08L       0.106700
     70 H22        -52.4690    39.5280    10.5700 hc         1 08L       0.059200
     71 H23        -53.1100    37.8980    10.5850 hc         1 08L       0.059200
     72 H38        -53.3710    36.7150     8.1940 ha         1 08L       0.112500
     73 H34        -50.7990    40.1110     8.9490 ha         1 08L       0.112500
     74 H37        -52.0520    36.1740     6.1580 ha         1 08L       0.110500
     75 H35        -49.4870    39.5640     6.9120 ha         1 08L       0.110500
     76 H36        -50.1090    37.5970     5.5120 ha         1 08L       0.109000
     77 H18        -56.9400    41.2570    12.3280 h1         1 08L       0.095700
     78 H19        -54.6920    41.7030    10.4830 hn         1 08L       0.330500
     79 H24        -54.3340    42.5360    13.3590 hc         1 08L       0.048700
     80 H25        -55.8710    42.5350    14.2120 hc         1 08L       0.048700
     81 H26        -55.7810    40.0060    14.3230 hc         1 08L       0.055200
     82 H27        -54.1850    40.0560    13.5690 hc         1 08L       0.055200
     83 H28        -53.3110    41.4270    15.4730 h1         1 08L       0.054700
     84 H29        -54.9050    41.3550    16.2530 h1         1 08L       0.054700
     85 H30        -52.8780    39.2360    16.1610 hn         1 08L       0.335500
     86 H31        -51.2080    35.8000    17.5890 h4         1 08L       0.031100
     87 H32        -52.7060    34.1390    18.7820 h4         1 08L       0.030100
     88 H33        -55.9840    36.6470    18.1890 h4         1 08L       0.057100
     89 H3         -60.7010    45.1480     8.9050 hn         1 08L       0.293500
     90 H2         -59.9260    43.0620    10.8900 h1         1 08L       0.073700
     91 H13        -60.0300    46.0570    11.5460 hc         1 08L       0.054200
     92 H14        -60.0150    44.7850    12.7550 hc         1 08L       0.054200
     93 H15        -57.7730    45.3140    10.7360 h1         1 08L       0.038700
     94 H16        -57.7710    45.8120    12.4380 h1         1 08L       0.038700
     95 H17        -58.0660    43.1960    12.8170 hn         1 08L       0.314500
     96 H4         -59.9300    45.1860     6.9410 ha         1 08L       0.170000
     97 H6         -58.5310    44.8480     5.1240 ha         1 08L       0.173000
@<TRIPOS>BOND
     1     1     2 2   
     2     1     3 1   
     3     1    45 1   
     4     3     4 2   
     5     3    96 1   
     6     4     5 1   
     7     4    97 1   
     8     5     6 2   
     9     5     7 1   
    10     7     8 1   
    11     7    53 1   
    12     8     9 1   
    13     8    11 1   
    14     8    54 1   
    15     9    10 2   
    16     9    18 1   
    17    11    12 1   
    18    11    55 1   
    19    11    56 1   
    20    12    13 1   
    21    12    17 1   
    22    12    57 1   
    23    13    14 1   
    24    13    58 1   
    25    13    59 1   
    26    14    15 1   
    27    14    60 1   
    28    14    61 1   
    29    15    16 1   
    30    15    62 1   
    31    15    63 1   
    32    16    17 1   
    33    16    64 1   
    34    16    65 1   
    35    17    66 1   
    36    17    67 1   
    37    18    19 1   
    38    18    68 1   
    39    19    20 1   
    40    19    22 1   
    41    19    69 1   
    42    20    21 2   
    43    20    32 1   
    44    22    23 1   
    45    22    70 1   
    46    22    71 1   
    47    23    24 ar  
    48    23    25 ar  
    49    24    26 ar  
    50    24    72 1   
    51    25    27 ar  
    52    25    73 1   
    53    26    28 ar  
    54    26    74 1   
    55    27    28 ar  
    56    27    75 1   
    57    28    76 1   
    58    29    30 2   
    59    29    31 1   
    60    29    51 1   
    61    31    32 1   
    62    31    33 1   
    63    31    77 1   
    64    32    78 1   
    65    33    34 1   
    66    33    79 1   
    67    33    80 1   
    68    34    35 1   
    69    34    81 1   
    70    34    82 1   
    71    35    36 1   
    72    35    83 1   
    73    35    84 1   
    74    36    37 1   
    75    36    85 1   
    76    37    38 2   
    77    37    39 1   
    78    39    40 ar  
    79    39    44 ar  
    80    40    41 ar  
    81    41    42 ar  
    82    41    86 1   
    83    42    43 ar  
    84    42    87 1   
    85    43    44 ar  
    86    44    88 1   
    87    45    46 1   
    88    45    89 1   
    89    46    47 1   
    90    46    49 1   
    91    46    90 1   
    92    47    48 1   
    93    47    52 1   
    94    49    50 1   
    95    49    91 1   
    96    49    92 1   
    97    50    51 1   
    98    50    93 1   
    99    50    94 1   
   100    51    95 1   
@<TRIPOS>SUBSTRUCTURE
     1 08L         1 TEMP              0 ****  ****    0 ROOT
