@<TRIPOS>MOLECULE
08M
   30    30     1     0     0
SMALL
bcc


@<TRIPOS>ATOM
      1 C21          5.2730     0.1000     0.1970 c          1 08M       0.900600
      2 O22          5.8010    -0.3390    -0.8470 o          1 08M      -0.837300
      3 C23          3.8860     0.7680     0.0390 c3         1 08M       0.014500
      4 N24          3.7100     1.5080    -1.2050 n8         1 08M      -0.893800
      5 C31          2.8110    -0.3180     0.1440 c3         1 08M      -0.049400
      6 C32          1.3950     0.2370     0.2010 c3         1 08M      -0.093400
      7 C33          0.3560    -0.8720     0.1810 c3         1 08M       0.093000
      8 N34         -0.9880    -0.3370     0.2240 ns         1 08M      -0.536900
      9 C35         -2.0380    -0.9320    -0.3430 c          1 08M       0.570600
     10 O36         -1.9890    -1.9730    -0.9850 o          1 08M      -0.615100
     11 C37         -3.3440    -0.2180    -0.1430 ca         1 08M       0.246500
     12 N38         -3.3610     0.8840     0.5940 nb         1 08M      -0.634000
     13 C39         -4.5230     1.4900     0.7590 ca         1 08M       0.283900
     14 C40         -5.6840     0.9890     0.1820 ca         1 08M       0.288900
     15 N41         -5.6750    -0.1110    -0.5560 nb         1 08M      -0.644000
     16 C42         -4.5070    -0.7170    -0.7190 ca         1 08M       0.334900
     17 H18          3.7370     1.4670     0.8690 h1         1 08M       0.036700
     18 H19          4.3030     2.3290    -1.1840 hn         1 08M       0.327800
     19 H24          2.9100    -0.9950    -0.7130 hc         1 08M       0.040700
     20 H25          3.0000    -0.9230     1.0360 hc         1 08M       0.040700
     21 H26          1.2810     0.8340     1.1130 hc         1 08M       0.044200
     22 H27          1.2310     0.9130    -0.6400 hc         1 08M       0.044200
     23 H28          0.4640    -1.4680    -0.7270 h1         1 08M       0.051200
     24 H29          0.5110    -1.5520     1.0250 h1         1 08M       0.051200
     25 H30         -1.1610     0.5010     0.7580 hn         1 08M       0.334500
     26 H31         -4.5430     2.3890     1.3630 h4         1 08M       0.029100
     27 H32         -6.6320     1.4940     0.3230 h4         1 08M       0.024100
     28 H33         -4.4910    -1.6170    -1.3200 h4         1 08M       0.054100
     29 H2           4.0970     0.9350    -1.9480 hn         1 08M       0.327800
     30 OXT          5.7420     0.0340     1.3510 o          1 08M      -0.837300
@<TRIPOS>BOND
     1     1     2 1   
     2     1     3 1   
     3     1    30 1   
     4     3     4 1   
     5     3     5 1   
     6     3    17 1   
     7     4    18 1   
     8     4    29 1   
     9     5     6 1   
    10     5    19 1   
    11     5    20 1   
    12     6     7 1   
    13     6    21 1   
    14     6    22 1   
    15     7     8 1   
    16     7    23 1   
    17     7    24 1   
    18     8     9 1   
    19     8    25 1   
    20     9    10 2   
    21     9    11 1   
    22    11    12 ar  
    23    11    16 ar  
    24    12    13 ar  
    25    13    14 ar  
    26    13    26 1   
    27    14    15 ar  
    28    14    27 1   
    29    15    16 ar  
    30    16    28 1   
@<TRIPOS>SUBSTRUCTURE
     1 08M         1 TEMP              0 ****  ****    0 ROOT
