@<TRIPOS>MOLECULE
08M
   30    30     1     0     0
SMALL
No Charge or Current Charge


@<TRIPOS>ATOM
      1 C21          5.3780     0.1240     0.3040 c          1 08M       0.690000
      2 O22          5.9380    -0.4720    -0.6080 o          1 08M      -0.732000
      3 C23          3.9520     0.7580     0.0280 c3         1 08M       0.014500
      4 N24          3.8370     1.6140    -1.2100 n8         1 08M      -1.004200
      5 C31          2.8610    -0.3490     0.0410 c3         1 08M      -0.049400
      6 C32          1.4080     0.1800     0.1210 c3         1 08M      -0.093400
      7 C33          0.3640    -0.9500     0.1890 c3         1 08M       0.093000
      8 N34         -0.9990    -0.4190     0.2720 ns         1 08M      -0.469900
      9 C35         -2.1130    -0.9670    -0.3400 c          1 08M       0.503600
     10 O36         -2.0350    -1.9920    -1.0090 o          1 08M      -0.615100
     11 C37         -3.4160    -0.2110    -0.1170 ca         1 08M       0.246500
     12 N38         -3.4210     0.9310     0.6520 nb         1 08M      -0.634000
     13 C39         -4.6300     1.5410     0.7970 ca         1 08M       0.283900
     14 C40         -5.8130     1.0340     0.1970 ca         1 08M       0.288900
     15 N41         -5.8180    -0.0950    -0.5650 nb         1 08M      -0.644000
     16 C42         -4.6080    -0.7090    -0.7130 ca         1 08M       0.334900
     17 H18          3.7460     1.4180     0.8820 h1         1 08M       0.036700
     18 H19          4.5340     2.3670    -1.1610 hn         1 08M       0.383000
     19 H24          2.9730    -0.9840    -0.8470 hc         1 08M       0.040700
     20 H25          3.0380    -0.9970     0.9100 hc         1 08M       0.040700
     21 H26          1.3050     0.8190     1.0060 hc         1 08M       0.044200
     22 H27          1.1950     0.8050    -0.7550 hc         1 08M       0.044200
     23 H28          0.4600    -1.5830    -0.7030 h1         1 08M       0.051200
     24 H29          0.5500    -1.5740     1.0740 h1         1 08M       0.051200
     25 H30         -1.1650     0.4280     0.8060 hn         1 08M       0.334500
     26 H31         -4.6550     2.4460     1.4020 h4         1 08M       0.029100
     27 H32         -6.7670     1.5410     0.3300 h4         1 08M       0.024100
     28 H33         -4.5970    -1.6130    -1.3200 h4         1 08M       0.054100
     29 H2           4.1540     1.0580    -2.0150 hn         1 08M       0.383000
     30 OXT          5.9140     0.3500     1.3810 o          1 08M      -0.732000
@<TRIPOS>BOND
     1     1     2 1   
     2     1     3 1   
     3     1    30 1   
     4     3     4 1   
     5     3     5 1   
     6     3    17 1   
     7     4    18 1   
     8     4    29 1   
     9     5     6 1   
    10     5    19 1   
    11     5    20 1   
    12     6     7 1   
    13     6    21 1   
    14     6    22 1   
    15     7     8 1   
    16     7    23 1   
    17     7    24 1   
    18     8     9 1   
    19     8    25 1   
    20     9    10 2   
    21     9    11 1   
    22    11    12 ar  
    23    11    16 ar  
    24    12    13 ar  
    25    13    14 ar  
    26    13    26 1   
    27    14    15 ar  
    28    14    27 1   
    29    15    16 ar  
    30    16    28 1   
@<TRIPOS>SUBSTRUCTURE
     1 08M         1 TEMP              0 ****  ****    0 ROOT
