@<TRIPOS>MOLECULE
08N
   53    57     1     0     0
SMALL
No Charge or Current Charge


@<TRIPOS>ATOM
      1 C02          9.6980   -14.3490    32.3920 c          1 08N       0.688700
      2 C04          9.8520   -16.6640    32.6070 c5         1 08N       0.219600
      3 C05          8.6180   -16.1600    33.3270 ca         1 08N      -0.072300
      4 C06          7.6780   -16.8690    34.0880 ca         1 08N      -0.100000
      5 C07          6.6050   -16.1600    34.6610 ca         1 08N      -0.086000
      6 C08          6.4660   -14.7650    34.4770 ca         1 08N       0.068100
      7 C10          5.1100   -12.7690    35.1390 c3         1 08N       0.150900
      8 C11          7.4350   -14.0650    33.6880 ca         1 08N       0.170100
      9 C13          6.9560   -12.2680    32.1280 c3         1 08N       0.146900
     10 C14          8.5090   -14.8030    33.1550 ca         1 08N      -0.208600
     11 C15          9.4960   -17.5960    31.3800 c6         1 08N       0.248800
     12 C18          7.5780   -17.6890    29.7470 c6         1 08N       0.184800
     13 C19          6.7040   -18.3550    30.8200 c6         1 08N      -0.037100
     14 C20          7.5600   -19.2740    31.6740 ca         1 08N      -0.033300
     15 C21          8.9210   -18.9410    31.9010 ca         1 08N      -0.127300
     16 C22          9.7560   -19.8410    32.6170 ca         1 08N       0.158100
     17 C24         12.0390   -20.3400    33.4740 c3         1 08N       0.151900
     18 C25          9.1710   -21.0280    33.1290 ca         1 08N      -0.027900
     19 C27          8.6730   -22.9140    34.1940 c5         1 08N       0.368600
     20 C29          7.8480   -21.3100    32.9250 ca         1 08N       0.091100
     21 C30          7.0140   -20.4640    32.1940 ca         1 08N      -0.123000
     22 N16          8.6370   -16.8570    30.3680 n3         1 08N      -0.750600
     23 O01         10.0420   -13.1900    32.2110 o          1 08N      -0.495000
     24 O03         10.5260   -15.4320    32.1840 os         1 08N      -0.428100
     25 O09          5.3680   -14.1840    35.1010 os         1 08N      -0.353100
     26 O12          7.3480   -12.7150    33.4380 os         1 08N      -0.347100
     27 O23         11.0950   -19.5140    32.7700 os         1 08N      -0.355100
     28 O26          9.7840   -22.0240    33.8320 os         1 08N      -0.347100
     29 O28          7.4720   -22.4970    33.4640 os         1 08N      -0.345100
     30 H1          10.5110   -17.1960    33.3030 h1         1 08N       0.093700
     31 H2           7.7740   -17.9410    34.2420 ha         1 08N       0.128000
     32 H3           5.8710   -16.6950    35.2580 ha         1 08N       0.130000
     33 H4           4.2270   -12.5640    35.7560 h1         1 08N       0.038033
     34 H5           5.9590   -12.2270    35.5750 h1         1 08N       0.038033
     35 H6           4.9100   -12.3790    34.1340 h1         1 08N       0.038033
     36 H7           6.9530   -11.1720    32.0830 h1         1 08N       0.048367
     37 H8           7.6410   -12.6400    31.3570 h1         1 08N       0.048367
     38 H9           5.9460   -12.6230    31.8860 h1         1 08N       0.048367
     39 H10         10.4490   -17.8570    30.8950 h1         1 08N       0.076700
     40 H11         10.1400   -15.4280    29.7900 h1         1 08N       0.039367
     41 H12          9.9700   -16.8160    28.7000 h1         1 08N       0.039367
     42 H13          8.7490   -15.5270    28.7030 h1         1 08N       0.039367
     43 H14          6.9360   -17.0690    29.1050 h1         1 08N       0.038200
     44 H15          8.0240   -18.4670    29.1090 h1         1 08N       0.038200
     45 H16          6.2290   -17.5890    31.4480 hc         1 08N       0.062700
     46 H17          5.8970   -18.9190    30.3350 hc         1 08N       0.062700
     47 H18         13.0310   -19.8730    33.4650 h1         1 08N       0.048367
     48 H19         11.7390   -20.4730    34.5210 h1         1 08N       0.048367
     49 H20         12.1260   -21.3260    32.9990 h1         1 08N       0.048367
     50 H21          8.4840   -22.8260    35.2710 h2         1 08N       0.069200
     51 H22          8.9260   -23.9500    33.9400 h2         1 08N       0.069200
     52 H23          5.9730   -20.7290    32.0240 ha         1 08N       0.139000
     53 C17          9.4170   -16.1190    29.3430 c3         1 08N       0.160100
@<TRIPOS>BOND
     1     1    10 1   
     2     1    23 2   
     3     1    24 1   
     4     2     3 1   
     5     2    11 1   
     6     2    24 1   
     7     2    30 1   
     8     3     4 ar  
     9     3    10 ar  
    10     4     5 ar  
    11     4    31 1   
    12     5     6 ar  
    13     5    32 1   
    14     6     8 ar  
    15     6    25 1   
    16     7    25 1   
    17     7    33 1   
    18     7    34 1   
    19     7    35 1   
    20     8    10 ar  
    21     8    26 1   
    22     9    26 1   
    23     9    36 1   
    24     9    37 1   
    25     9    38 1   
    26    11    15 1   
    27    11    22 1   
    28    11    39 1   
    29    12    13 1   
    30    12    22 1   
    31    12    43 1   
    32    12    44 1   
    33    13    14 1   
    34    13    45 1   
    35    13    46 1   
    36    14    15 ar  
    37    14    21 ar  
    38    15    16 ar  
    39    16    18 ar  
    40    16    27 1   
    41    17    27 1   
    42    17    47 1   
    43    17    48 1   
    44    17    49 1   
    45    18    20 ar  
    46    18    28 1   
    47    19    28 1   
    48    19    29 1   
    49    19    50 1   
    50    19    51 1   
    51    20    21 ar  
    52    20    29 1   
    53    21    52 1   
    54    22    53 1   
    55    40    53 1   
    56    41    53 1   
    57    42    53 1   
@<TRIPOS>SUBSTRUCTURE
     1 08N         1 TEMP              0 ****  ****    0 ROOT
