@<TRIPOS>MOLECULE
08N
   53    57     1     0     0
SMALL
abcg2


@<TRIPOS>ATOM
      1 C02          9.8520   -14.4260    32.3460 c          1 08N       0.688700
      2 C04         10.0140   -16.7250    32.5540 c5         1 08N       0.219600
      3 C05          8.8780   -16.2400    33.3950 ca         1 08N      -0.072300
      4 C06          8.0590   -16.9300    34.2700 ca         1 08N      -0.100000
      5 C07          7.0480   -16.2180    34.9050 ca         1 08N      -0.086000
      6 C08          6.8510   -14.8580    34.6670 ca         1 08N       0.068100
      7 C10          4.6830   -13.9030    34.6120 c3         1 08N       0.150900
      8 C11          7.6840   -14.1550    33.7820 ca         1 08N       0.170100
      9 C13          7.1910   -12.3700    32.2820 c3         1 08N       0.146900
     10 C14          8.7180   -14.8750    33.1720 ca         1 08N      -0.208600
     11 C15          9.5800   -17.5640    31.3080 c6         1 08N       0.248800
     12 C18          7.5210   -17.2560    29.9440 c6         1 08N       0.184800
     13 C19          6.7180   -17.8160    31.1020 c6         1 08N      -0.037100
     14 C20          7.4940   -18.9190    31.7660 ca         1 08N      -0.033300
     15 C21          8.8830   -18.8130    31.8020 ca         1 08N      -0.127300
     16 C22          9.6680   -19.8230    32.4030 ca         1 08N       0.158100
     17 C24         11.7790   -20.1480    33.4960 c3         1 08N       0.151900
     18 C25          9.0010   -20.8990    32.9590 ca         1 08N      -0.027900
     19 C27          8.3870   -22.6910    34.1310 c5         1 08N       0.368600
     20 C29          7.6160   -20.9800    32.9230 ca         1 08N       0.091100
     21 C30          6.8330   -20.0210    32.3280 ca         1 08N      -0.123000
     22 N16          8.8000   -16.7240    30.3960 n3         1 08N      -0.750600
     23 O01         10.1660   -13.3240    31.9580 o          1 08N      -0.495000
     24 O03         10.6370   -15.5040    32.0890 os         1 08N      -0.428100
     25 O09          5.8680   -14.2040    35.3650 os         1 08N      -0.353100
     26 O12          7.4790   -12.8220    33.6210 os         1 08N      -0.347100
     27 O23         11.0230   -19.6850    32.3660 os         1 08N      -0.355100
     28 O26          9.5150   -22.0500    33.5180 os         1 08N      -0.347100
     29 O28          7.2180   -22.1710    33.4810 os         1 08N      -0.345100
     30 H1          10.7610   -17.2790    33.1170 h1         1 08N       0.093700
     31 H2           8.1920   -17.9850    34.4580 ha         1 08N       0.128000
     32 H3           6.3820   -16.7090    35.6040 ha         1 08N       0.130000
     33 H4           3.9900   -13.4310    35.3050 h1         1 08N       0.038033
     34 H5           4.9030   -13.2200    33.7910 h1         1 08N       0.038033
     35 H6           4.2430   -14.8230    34.2180 h1         1 08N       0.038033
     36 H7           6.9530   -11.3130    32.3710 h1         1 08N       0.048367
     37 H8           8.0530   -12.5050    31.6330 h1         1 08N       0.048367
     38 H9           6.3290   -12.9110    31.8870 h1         1 08N       0.048367
     39 H10         10.5120   -17.8620    30.8220 h1         1 08N       0.076700
     40 H11         10.5010   -15.7640    29.6290 h1         1 08N       0.039367
     41 H12          9.8610   -17.0450    28.5760 h1         1 08N       0.039367
     42 H13          9.0090   -15.4930    28.7220 h1         1 08N       0.039367
     43 H14          6.9770   -16.4400    29.4610 h1         1 08N       0.038200
     44 H15          7.6570   -18.0480    29.1870 h1         1 08N       0.038200
     45 H16          6.5040   -17.0170    31.8190 hc         1 08N       0.062700
     46 H17          5.7610   -18.1950    30.7430 hc         1 08N       0.062700
     47 H18         12.7720   -19.7180    33.3820 h1         1 08N       0.048367
     48 H19         11.3270   -19.7930    34.4240 h1         1 08N       0.048367
     49 H20         11.8430   -21.2350    33.5090 h1         1 08N       0.048367
     50 H21          8.3550   -22.4310    35.1940 h2         1 08N       0.069200
     51 H22          8.4480   -23.7640    33.9710 h2         1 08N       0.069200
     52 H23          5.7560   -20.1100    32.2880 ha         1 08N       0.139000
     53 C17          9.5880   -16.2360    29.2730 c3         1 08N       0.160100
@<TRIPOS>BOND
     1     1    10 1   
     2     1    23 2   
     3     1    24 1   
     4     2     3 1   
     5     2    11 1   
     6     2    24 1   
     7     2    30 1   
     8     3     4 ar  
     9     3    10 ar  
    10     4     5 ar  
    11     4    31 1   
    12     5     6 ar  
    13     5    32 1   
    14     6     8 ar  
    15     6    25 1   
    16     7    25 1   
    17     7    33 1   
    18     7    34 1   
    19     7    35 1   
    20     8    10 ar  
    21     8    26 1   
    22     9    26 1   
    23     9    36 1   
    24     9    37 1   
    25     9    38 1   
    26    11    15 1   
    27    11    22 1   
    28    11    39 1   
    29    12    13 1   
    30    12    22 1   
    31    12    43 1   
    32    12    44 1   
    33    13    14 1   
    34    13    45 1   
    35    13    46 1   
    36    14    15 ar  
    37    14    21 ar  
    38    15    16 ar  
    39    16    18 ar  
    40    16    27 1   
    41    17    27 1   
    42    17    47 1   
    43    17    48 1   
    44    17    49 1   
    45    18    20 ar  
    46    18    28 1   
    47    19    28 1   
    48    19    29 1   
    49    19    50 1   
    50    19    51 1   
    51    20    21 ar  
    52    20    29 1   
    53    21    52 1   
    54    22    53 1   
    55    40    53 1   
    56    41    53 1   
    57    42    53 1   
@<TRIPOS>SUBSTRUCTURE
     1 08N         1 TEMP              0 ****  ****    0 ROOT
