@<TRIPOS>MOLECULE
08O
   65    64     1     0     0
SMALL
abcg2


@<TRIPOS>ATOM
      1 O1           5.7310   -16.5450    -0.1600 o          1 08O      -0.745500
      2 C1           6.7150   -16.9100    -0.8600 c          1 08O       0.707000
      3 O2           7.9210   -16.6460    -0.6190 o          1 08O      -0.745500
      4 C2           6.3770   -17.7560    -2.1020 c3         1 08O      -0.200400
      5 C3           7.5510   -18.2220    -2.9530 c3         1 08O      -0.059400
      6 C4           7.1400   -19.1980    -4.0540 c3         1 08O      -0.081400
      7 C5           8.3310   -19.8000    -4.7980 c3         1 08O      -0.076400
      8 C6           7.9480   -20.7100    -5.9710 c3         1 08O      -0.069400
      9 C7           7.1230   -21.9460    -5.6020 c3         1 08O      -0.072400
     10 C8           7.8500   -22.9710    -4.7300 c3         1 08O      -0.076400
     11 C9           6.9630   -24.1730    -4.4010 c3         1 08O      -0.074400
     12 C10          7.6630   -25.3340    -3.6930 c3         1 08O      -0.069400
     13 C11          8.2610   -24.9800    -2.3320 c3         1 08O      -0.078400
     14 C12          8.6160   -26.2250    -1.5020 c3         1 08O      -0.041200
     15 C13          9.3710   -25.9050    -0.2450 c2         1 08O      -0.218200
     16 C14          8.8940   -25.8520     0.9990 c2         1 08O      -0.212200
     17 C15          7.4800   -26.0630     1.4580 c3         1 08O      -0.043200
     18 C16          6.8600   -24.7620     2.0040 c3         1 08O      -0.069400
     19 C17          6.6880   -23.7050     0.9180 c3         1 08O      -0.083400
     20 C18          6.3460   -22.3090     1.4280 c3         1 08O      -0.071400
     21 C19          6.2170   -21.2710     0.3030 c3         1 08O      -0.073400
     22 C20          7.4030   -21.2260    -0.6660 c3         1 08O      -0.076400
     23 C21          8.7530   -20.9300    -0.0150 c3         1 08O      -0.077400
     24 C22          9.9160   -21.0410    -0.9990 c3         1 08O      -0.085100
     25 H2           5.6700   -17.1810    -2.7100 hc         1 08O       0.017200
     26 H3           8.2910   -18.7000    -2.3080 hc         1 08O       0.039200
     27 H4           6.4800   -18.6920    -4.7690 hc         1 08O       0.025200
     28 H5           6.5440   -20.0010    -3.6090 hc         1 08O       0.025200
     29 H6           8.9500   -20.3530    -4.0860 hc         1 08O       0.034700
     30 H7           8.9590   -18.9880    -5.1790 hc         1 08O       0.034700
     31 H8           8.8620   -21.0360    -6.4810 hc         1 08O       0.026700
     32 H9           7.3840   -20.1180    -6.7000 hc         1 08O       0.026700
     33 H10          6.2020   -21.6380    -5.0970 hc         1 08O       0.032700
     34 H11          6.8070   -22.4420    -6.5260 hc         1 08O       0.032700
     35 H12          8.7520   -23.3140    -5.2510 hc         1 08O       0.041700
     36 H13          8.1890   -22.5010    -3.8030 hc         1 08O       0.041700
     37 H14          6.1240   -23.8330    -3.7820 hc         1 08O       0.034700
     38 H15          6.5220   -24.5480    -5.3320 hc         1 08O       0.034700
     39 H16          6.9370   -26.1430    -3.5570 hc         1 08O       0.028700
     40 H17          8.4510   -25.7370    -4.3410 hc         1 08O       0.028700
     41 H18          9.1520   -24.3580    -2.4590 hc         1 08O       0.050200
     42 H19          7.5450   -24.3780    -1.7680 hc         1 08O       0.050200
     43 H20          7.6940   -26.7660    -1.2770 hc         1 08O       0.035200
     44 H21          9.2270   -26.8920    -2.1200 hc         1 08O       0.035200
     45 H22         10.4230   -25.6690    -0.3890 ha         1 08O       0.163000
     46 H24          9.5880   -25.5780     1.7910 ha         1 08O       0.162000
     47 H26          6.8570   -26.4450     0.6460 hc         1 08O       0.037700
     48 H27          7.4690   -26.8170     2.2520 hc         1 08O       0.037700
     49 H28          7.5050   -24.3670     2.7960 hc         1 08O       0.034200
     50 H29          5.8960   -24.9880     2.4700 hc         1 08O       0.034200
     51 H30          5.9230   -24.0350     0.2050 hc         1 08O       0.041200
     52 H31          7.6190   -23.6520     0.3540 hc         1 08O       0.041200
     53 H32          7.1210   -21.9940     2.1330 hc         1 08O       0.032200
     54 H33          5.4110   -22.3370     1.9970 hc         1 08O       0.032200
     55 H34          6.0740   -20.2800     0.7460 hc         1 08O       0.050700
     56 H35          5.3100   -21.4830    -0.2730 hc         1 08O       0.050700
     57 H36          7.4710   -22.1740    -1.2060 hc         1 08O       0.039200
     58 H37          7.2050   -20.4700    -1.4280 hc         1 08O       0.039200
     59 H38          8.7300   -19.9260     0.4230 hc         1 08O       0.045200
     60 H39          8.9240   -21.6230     0.8140 hc         1 08O       0.045200
     61 H40         10.8710   -20.8230    -0.5160 hc         1 08O       0.024700
     62 H41          9.9730   -22.0490    -1.4170 hc         1 08O       0.024700
     63 H42          9.7950   -20.3460    -1.8330 hc         1 08O       0.024700
     64 H43          5.8110   -18.6240    -1.7460 hc         1 08O       0.017200
     65 H44          8.0560   -17.3580    -3.3970 hc         1 08O       0.039200
@<TRIPOS>BOND
     1     1     2 1   
     2     2     3 1   
     3     2     4 1   
     4     4     5 1   
     5     4    25 1   
     6     4    64 1   
     7     5     6 1   
     8     5    26 1   
     9     5    65 1   
    10     6     7 1   
    11     6    27 1   
    12     6    28 1   
    13     7     8 1   
    14     7    29 1   
    15     7    30 1   
    16     8     9 1   
    17     8    31 1   
    18     8    32 1   
    19     9    10 1   
    20     9    33 1   
    21     9    34 1   
    22    10    11 1   
    23    10    35 1   
    24    10    36 1   
    25    11    12 1   
    26    11    37 1   
    27    11    38 1   
    28    12    13 1   
    29    12    39 1   
    30    12    40 1   
    31    13    14 1   
    32    13    41 1   
    33    13    42 1   
    34    14    15 1   
    35    14    43 1   
    36    14    44 1   
    37    15    16 2   
    38    15    45 1   
    39    16    17 1   
    40    16    46 1   
    41    17    18 1   
    42    17    47 1   
    43    17    48 1   
    44    18    19 1   
    45    18    49 1   
    46    18    50 1   
    47    19    20 1   
    48    19    51 1   
    49    19    52 1   
    50    20    21 1   
    51    20    53 1   
    52    20    54 1   
    53    21    22 1   
    54    21    55 1   
    55    21    56 1   
    56    22    23 1   
    57    22    57 1   
    58    22    58 1   
    59    23    24 1   
    60    23    59 1   
    61    23    60 1   
    62    24    61 1   
    63    24    62 1   
    64    24    63 1   
@<TRIPOS>SUBSTRUCTURE
     1 08O         1 TEMP              0 ****  ****    0 ROOT
