@<TRIPOS>MOLECULE
08O
   65    64     1     0     0
SMALL
No Charge or Current Charge


@<TRIPOS>ATOM
      1 O1           6.8860   -16.3780    -0.3130 o          1 08O      -0.745500
      2 C1           6.6770   -16.1160    -1.4870 c          1 08O       0.707000
      3 O2           6.8320   -15.0040    -1.9680 o          1 08O      -0.745500
      4 C2           6.2460   -17.2600    -2.4240 c3         1 08O      -0.200400
      5 C3           7.4900   -17.9450    -3.0410 c3         1 08O      -0.059400
      6 C4           7.1320   -19.0770    -4.0320 c3         1 08O      -0.081400
      7 C5           8.3710   -19.8090    -4.6010 c3         1 08O      -0.076400
      8 C6           8.0580   -20.7550    -5.7870 c3         1 08O      -0.069400
      9 C7           7.1520   -21.9690    -5.4660 c3         1 08O      -0.072400
     10 C8           7.8210   -23.0630    -4.6010 c3         1 08O      -0.076400
     11 C9           6.8880   -24.2730    -4.3550 c3         1 08O      -0.074400
     12 C10          7.5700   -25.5050    -3.7140 c3         1 08O      -0.069400
     13 C11          8.1620   -25.2550    -2.3090 c3         1 08O      -0.078400
     14 C12          8.6420   -26.5490    -1.6170 c3         1 08O      -0.041200
     15 C13          9.3690   -26.2830    -0.3110 c2         1 08O      -0.218200
     16 C14          8.8410   -26.1910     0.9240 c2         1 08O      -0.212200
     17 C15          7.3770   -26.2960     1.3250 c3         1 08O      -0.043200
     18 C16          6.8430   -24.9790     1.9340 c3         1 08O      -0.069400
     19 C17          6.7740   -23.8280     0.9080 c3         1 08O      -0.083400
     20 C18          6.4220   -22.4540     1.5180 c3         1 08O      -0.071400
     21 C19          6.2660   -21.3220     0.4690 c3         1 08O      -0.073400
     22 C20          7.4520   -21.1390    -0.5150 c3         1 08O      -0.076400
     23 C21          8.8150   -20.8530     0.1590 c3         1 08O      -0.077400
     24 C22          9.9700   -20.7060    -0.8510 c3         1 08O      -0.085100
     25 H2           5.6710   -16.8640    -3.2710 hc         1 08O       0.017200
     26 H3           8.1140   -18.3470    -2.2350 hc         1 08O       0.039200
     27 H4           6.5530   -18.6490    -4.8610 hc         1 08O       0.025200
     28 H5           6.4810   -19.8020    -3.5290 hc         1 08O       0.025200
     29 H6           8.8670   -20.3680    -3.7990 hc         1 08O       0.034700
     30 H7           9.0920   -19.0590    -4.9490 hc         1 08O       0.034700
     31 H8           9.0040   -21.1220    -6.2050 hc         1 08O       0.026700
     32 H9           7.5830   -20.1680    -6.5820 hc         1 08O       0.026700
     33 H10          6.2280   -21.6300    -4.9830 hc         1 08O       0.032700
     34 H11          6.8490   -22.4220    -6.4190 hc         1 08O       0.032700
     35 H12          8.7340   -23.4070    -5.1030 hc         1 08O       0.041700
     36 H13          8.1230   -22.6360    -3.6380 hc         1 08O       0.041700
     37 H14          6.0470   -23.9560    -3.7250 hc         1 08O       0.034700
     38 H15          6.4560   -24.5880    -5.3130 hc         1 08O       0.034700
     39 H16          6.8260   -26.3080    -3.6460 hc         1 08O       0.028700
     40 H17          8.3620   -25.8670    -4.3810 hc         1 08O       0.028700
     41 H18          9.0020   -24.5540    -2.3850 hc         1 08O       0.050200
     42 H19          7.3990   -24.7780    -1.6860 hc         1 08O       0.050200
     43 H20          7.7810   -27.2080    -1.4540 hc         1 08O       0.035200
     44 H21          9.3100   -27.0930    -2.2960 hc         1 08O       0.035200
     45 H22         10.4480   -26.1730    -0.4340 ha         1 08O       0.163000
     46 H24          9.5050   -26.0040     1.7700 ha         1 08O       0.162000
     47 H26          6.7440   -26.5740     0.4750 hc         1 08O       0.037700
     48 H27          7.2620   -27.0970     2.0650 hc         1 08O       0.037700
     49 H28          7.4850   -24.6860     2.7750 hc         1 08O       0.034200
     50 H29          5.8410   -25.1540     2.3450 hc         1 08O       0.034200
     51 H30          6.0350   -24.0810     0.1380 hc         1 08O       0.041200
     52 H31          7.7470   -23.7500     0.4120 hc         1 08O       0.041200
     53 H32          7.1930   -22.1740     2.2460 hc         1 08O       0.032200
     54 H33          5.4840   -22.5410     2.0790 hc         1 08O       0.032200
     55 H34          6.0940   -20.3760     0.9970 hc         1 08O       0.050700
     56 H35          5.3600   -21.5120    -0.1190 hc         1 08O       0.050700
     57 H36          7.5390   -22.0260    -1.1540 hc         1 08O       0.039200
     58 H37          7.2110   -20.3080    -1.1860 hc         1 08O       0.039200
     59 H38          8.7410   -19.9370     0.7580 hc         1 08O       0.045200
     60 H39          9.0660   -21.6670     0.8490 hc         1 08O       0.045200
     61 H40         10.9180   -20.5440    -0.3250 hc         1 08O       0.024700
     62 H41         10.0670   -21.6110    -1.4620 hc         1 08O       0.024700
     63 H42          9.8000   -19.8540    -1.5170 hc         1 08O       0.024700
     64 H43          5.7210   -18.0410    -1.8610 hc         1 08O       0.017200
     65 H44          8.0940   -17.1930    -3.5620 hc         1 08O       0.039200
@<TRIPOS>BOND
     1     1     2 1   
     2     2     3 1   
     3     2     4 1   
     4     4     5 1   
     5     4    25 1   
     6     4    64 1   
     7     5     6 1   
     8     5    26 1   
     9     5    65 1   
    10     6     7 1   
    11     6    27 1   
    12     6    28 1   
    13     7     8 1   
    14     7    29 1   
    15     7    30 1   
    16     8     9 1   
    17     8    31 1   
    18     8    32 1   
    19     9    10 1   
    20     9    33 1   
    21     9    34 1   
    22    10    11 1   
    23    10    35 1   
    24    10    36 1   
    25    11    12 1   
    26    11    37 1   
    27    11    38 1   
    28    12    13 1   
    29    12    39 1   
    30    12    40 1   
    31    13    14 1   
    32    13    41 1   
    33    13    42 1   
    34    14    15 1   
    35    14    43 1   
    36    14    44 1   
    37    15    16 2   
    38    15    45 1   
    39    16    17 1   
    40    16    46 1   
    41    17    18 1   
    42    17    47 1   
    43    17    48 1   
    44    18    19 1   
    45    18    49 1   
    46    18    50 1   
    47    19    20 1   
    48    19    51 1   
    49    19    52 1   
    50    20    21 1   
    51    20    53 1   
    52    20    54 1   
    53    21    22 1   
    54    21    55 1   
    55    21    56 1   
    56    22    23 1   
    57    22    57 1   
    58    22    58 1   
    59    23    24 1   
    60    23    59 1   
    61    23    60 1   
    62    24    61 1   
    63    24    62 1   
    64    24    63 1   
@<TRIPOS>SUBSTRUCTURE
     1 08O         1 TEMP              0 ****  ****    0 ROOT
