@<TRIPOS>MOLECULE
08P
   17    16     1     0     0
SMALL
No Charge or Current Charge


@<TRIPOS>ATOM
      1 OAY         19.9170   -54.5700    -3.7880 o          1 08P      -0.723000
      2 CAS         20.0080   -53.9080    -4.8210 c          1 08P       0.662000
      3 OAX         19.0240   -53.5120    -5.4440 o          1 08P      -0.723000
      4 CAR         21.5090   -53.5360    -5.3760 c          1 08P       0.447100
      5 OAW         21.7260   -52.8540    -6.3830 o          1 08P      -0.679100
      6 N           22.5440   -54.0450    -4.6000 ns         1 08P      -0.472900
      7 CA          23.9990   -53.9170    -4.8870 c3         1 08P      -0.031300
      8 C           24.7740   -53.4620    -3.6170 c          1 08P       0.714000
      9 O           25.4360   -52.4350    -3.6780 o          1 08P      -0.736000
     10 OXT         24.6390   -54.1090    -2.5860 o          1 08P      -0.736000
     11 CB          24.6150   -55.2240    -5.4390 c3         1 08P       0.112600
     12 S           23.8020   -55.8960    -6.9680 sh         1 08P      -0.458800
     13 H           22.2590   -54.5660    -3.7750 hn         1 08P       0.347500
     14 HA          24.1390   -53.1350    -5.6430 h1         1 08P       0.059700
     15 HB2         24.5640   -56.0020    -4.6650 h1         1 08P       0.044700
     16 HB3         25.6750   -55.0510    -5.6670 h1         1 08P       0.044700
     17 H3          24.6040   -56.9790    -7.0970 hs         1 08P       0.128800
@<TRIPOS>BOND
     1     1     2 1   
     2     2     3 1   
     3     2     4 1   
     4     4     5 2   
     5     4     6 1   
     6     6     7 1   
     7     6    13 1   
     8     7     8 1   
     9     7    11 1   
    10     7    14 1   
    11     8     9 1   
    12     8    10 1   
    13    11    12 1   
    14    11    15 1   
    15    11    16 1   
    16    12    17 1   
@<TRIPOS>SUBSTRUCTURE
     1 08P         1 TEMP              0 ****  ****    0 ROOT
