@<TRIPOS>MOLECULE
08P
   17    16     1     0     0
SMALL
abcg2


@<TRIPOS>ATOM
      1 OAY         20.1130   -54.4190    -3.6140 o          1 08P      -0.723000
      2 CAS         20.1210   -53.9650    -4.7740 c          1 08P       0.662000
      3 OAX         19.1610   -53.6810    -5.5000 o          1 08P      -0.723000
      4 CAR         21.5330   -53.7220    -5.3970 c          1 08P       0.447100
      5 OAW         21.6860   -53.2230    -6.5050 o          1 08P      -0.679100
      6 N           22.5370   -54.1110    -4.6030 ns         1 08P      -0.472900
      7 CA          23.9340   -53.9070    -4.8660 c3         1 08P      -0.031300
      8 C           24.6980   -53.5100    -3.5650 c          1 08P       0.714000
      9 O           25.8980   -53.2270    -3.7260 o          1 08P      -0.736000
     10 OXT         24.0530   -53.5280    -2.5010 o          1 08P      -0.736000
     11 CB          24.6040   -55.1480    -5.4540 c3         1 08P       0.112600
     12 S           23.7970   -55.6500    -7.0160 sh         1 08P      -0.458800
     13 H           22.2810   -54.4080    -3.6720 hn         1 08P       0.347500
     14 HA          24.0370   -53.0870    -5.5830 h1         1 08P       0.059700
     15 HB2         24.5460   -55.9770    -4.7460 h1         1 08P       0.044700
     16 HB3         25.6510   -54.9320    -5.6490 h1         1 08P       0.044700
     17 H3          24.5840   -56.7050    -7.2630 hs         1 08P       0.128800
@<TRIPOS>BOND
     1     1     2 1   
     2     2     3 1   
     3     2     4 1   
     4     4     5 2   
     5     4     6 1   
     6     6     7 1   
     7     6    13 1   
     8     7     8 1   
     9     7    11 1   
    10     7    14 1   
    11     8     9 1   
    12     8    10 1   
    13    11    12 1   
    14    11    15 1   
    15    11    16 1   
    16    12    17 1   
@<TRIPOS>SUBSTRUCTURE
     1 08P         1 TEMP              0 ****  ****    0 ROOT
