@<TRIPOS>MOLECULE
08R
   57    59     1     0     0
SMALL
bcc


@<TRIPOS>ATOM
      1 N02          4.9680     2.2790     2.0920 nv         1 08R      -0.939500
      2 C02          4.1780     2.2130     0.9770 ca         1 08R       0.660200
      3 C03          4.2700     3.1930    -0.0250 ca         1 08R      -0.315300
      4 C04          3.4210     3.1210    -1.1120 ca         1 08R      -0.000300
      5 C07          3.4580     4.1500    -2.2000 c3         1 08R      -0.053800
      6 C05          2.5070     2.0630    -1.1640 ca         1 08R      -0.299300
      7 N01          3.3050     1.2140     0.9170 nb         1 08R      -0.749000
      8 C06          2.4870     1.1370    -0.1350 ca         1 08R       0.461600
      9 C08          1.5550    -0.0410    -0.1800 c3         1 08R      -0.108700
     10 C3           2.2800    -1.3160    -0.6100 c5         1 08R      -0.085700
     11 C2           3.2190    -1.9500     0.4190 c5         1 08R       0.149800
     12 N1           3.4850    -3.2950    -0.0800 n7         1 08R      -0.782200
     13 C5           2.3070    -3.7100    -0.8550 c5         1 08R       0.112800
     14 C4           1.3650    -2.4920    -0.9560 c5         1 08R       0.127100
     15 O09          0.3230    -2.5410    -0.0070 os         1 08R      -0.413600
     16 C10         -0.7630    -3.3640    -0.3580 c3         1 08R       0.134400
     17 C11         -1.9130    -3.0670     0.5790 c3         1 08R       0.159800
     18 N12         -2.3790    -1.7050     0.4160 n7         1 08R      -0.798200
     19 C13         -3.4530    -1.3670     1.3330 c3         1 08R       0.218100
     20 C21         -3.8580     0.0710     1.1710 ca         1 08R      -0.122300
     21 C22         -4.6190     0.4930     0.0680 ca         1 08R       0.164100
     22 O22         -5.0030    -0.4690    -0.7920 os         1 08R      -0.304900
     23 C27         -5.8160    -0.1140    -1.8920 c3         1 08R       0.124700
     24 C26         -3.4430     1.0220     2.0920 ca         1 08R      -0.090000
     25 C25         -3.7630     2.3680     1.9520 ca         1 08R      -0.169000
     26 C24         -4.5150     2.7680     0.8610 ca         1 08R      -0.087000
     27 C23         -4.9470     1.8380    -0.0800 ca         1 08R      -0.225000
     28 H1           5.0670     1.4180     2.6050 hn         1 08R       0.409800
     29 H2           5.8230     2.8050     2.0180 hn         1 08R       0.409800
     30 H3           4.9980     3.9910     0.0600 ha         1 08R       0.136000
     31 H4           3.4650     3.6820    -3.1850 hc         1 08R       0.046033
     32 H5           2.5730     4.7870    -2.1550 hc         1 08R       0.046033
     33 H6           4.3350     4.7910    -2.1210 hc         1 08R       0.046033
     34 H7           1.8250     1.9660    -1.9990 ha         1 08R       0.139000
     35 H8           1.1050    -0.1820     0.8050 hc         1 08R       0.066200
     36 H9           0.7430     0.1700    -0.8790 hc         1 08R       0.066200
     37 H10          2.8660    -1.0970    -1.5110 hc         1 08R       0.046700
     38 H11          4.1480    -1.3990     0.5550 h1         1 08R       0.064700
     39 H12          2.7250    -1.9920     1.3960 h1         1 08R       0.064700
     40 H13          4.2800    -3.2510    -0.7020 hn         1 08R       0.338800
     41 H15          2.6040    -4.0570    -1.8450 h1         1 08R       0.049700
     42 H16          1.7910    -4.5450    -0.3710 h1         1 08R       0.049700
     43 H17          0.9410    -2.3920    -1.9640 h1         1 08R       0.042700
     44 H18         -1.0770    -3.1700    -1.3940 h1         1 08R       0.029200
     45 H19         -0.5030    -4.4290    -0.2910 h1         1 08R       0.029200
     46 H20         -2.7300    -3.7530     0.3350 h1         1 08R       0.036200
     47 H21         -1.6130    -3.2990     1.6140 h1         1 08R       0.036200
     48 H22         -1.6030    -1.0750     0.5830 hn         1 08R       0.364800
     49 H24         -4.2990    -2.0300     1.1310 h1         1 08R       0.035200
     50 H25         -3.1760    -1.5380     2.3850 h1         1 08R       0.035200
     51 H26         -5.3120     0.5830    -2.5660 h1         1 08R       0.038700
     52 H27         -6.0210    -1.0350    -2.4320 h1         1 08R       0.038700
     53 H28         -6.7640     0.3280    -1.5760 h1         1 08R       0.038700
     54 H29         -2.8570     0.6960     2.9440 ha         1 08R       0.130000
     55 H30         -3.4280     3.0890     2.6850 ha         1 08R       0.134000
     56 H31         -4.7770     3.8090     0.7290 ha         1 08R       0.127000
     57 H32         -5.5330     2.1810    -0.9210 ha         1 08R       0.133000
@<TRIPOS>BOND
     1     1     2 1   
     2     1    28 1   
     3     1    29 1   
     4     2     3 ar  
     5     2     7 ar  
     6     3     4 ar  
     7     3    30 1   
     8     4     5 1   
     9     4     6 ar  
    10     5    31 1   
    11     5    32 1   
    12     5    33 1   
    13     6     8 ar  
    14     6    34 1   
    15     7     8 ar  
    16     8     9 1   
    17     9    10 1   
    18     9    35 1   
    19     9    36 1   
    20    10    11 1   
    21    10    14 1   
    22    10    37 1   
    23    11    12 1   
    24    11    38 1   
    25    11    39 1   
    26    12    13 1   
    27    12    40 1   
    28    13    14 1   
    29    13    41 1   
    30    13    42 1   
    31    14    15 1   
    32    14    43 1   
    33    15    16 1   
    34    16    17 1   
    35    16    44 1   
    36    16    45 1   
    37    17    18 1   
    38    17    46 1   
    39    17    47 1   
    40    18    19 1   
    41    18    48 1   
    42    19    20 1   
    43    19    49 1   
    44    19    50 1   
    45    20    21 ar  
    46    20    24 ar  
    47    21    22 1   
    48    21    27 ar  
    49    22    23 1   
    50    23    51 1   
    51    23    52 1   
    52    23    53 1   
    53    24    25 ar  
    54    24    54 1   
    55    25    26 ar  
    56    25    55 1   
    57    26    27 ar  
    58    26    56 1   
    59    27    57 1   
@<TRIPOS>SUBSTRUCTURE
     1 08R         1 TEMP              0 ****  ****    0 ROOT
