@<TRIPOS>MOLECULE
08R
   57    59     1     0     0
SMALL
No Charge or Current Charge


@<TRIPOS>ATOM
      1 N02          3.3590     2.9140     2.6230 nv         1 08R      -1.049900
      2 C02          3.3330     2.6570     1.3140 ca         1 08R       0.594900
      3 C03          4.0460     3.3960     0.3680 ca         1 08R      -0.232000
      4 C04          3.9490     3.0240    -0.9810 ca         1 08R      -0.000300
      5 C07          4.6920     3.7840    -2.0670 c3         1 08R      -0.053800
      6 C05          3.1310     1.9240    -1.2880 ca         1 08R      -0.216000
      7 N01          2.5630     1.6130     1.0450 nb         1 08R      -0.749000
      8 C06          2.4580     1.2480    -0.2520 ca         1 08R       0.396300
      9 C08          1.5770     0.0450    -0.5570 c3         1 08R      -0.108700
     10 C3           2.3770    -1.2650    -0.8090 c5         1 08R      -0.085700
     11 C2           3.1360    -1.8240     0.4200 c5         1 08R       0.149800
     12 N1           3.6490    -3.1150    -0.0950 n7         1 08R      -0.837400
     13 C5           2.4690    -3.7140    -0.7860 c5         1 08R       0.112800
     14 C4           1.5420    -2.5180    -1.2180 c5         1 08R       0.150300
     15 O09          0.3290    -2.5370    -0.4190 os         1 08R      -0.460000
     16 C10         -0.6510    -3.5570    -0.7150 c3         1 08R       0.157600
     17 C11         -1.8860    -3.3080     0.1880 c3         1 08R       0.159800
     18 N12         -2.3930    -1.9290     0.0090 n7         1 08R      -0.853400
     19 C13         -3.3340    -1.4590     1.0380 c3         1 08R       0.218100
     20 C21         -3.6410     0.0210     0.8340 ca         1 08R      -0.122300
     21 C22         -4.8950     0.4590     0.3440 ca         1 08R       0.164100
     22 O22         -5.8630    -0.4840     0.0480 os         1 08R      -0.328100
     23 C27         -7.1600    -0.1270    -0.4600 c3         1 08R       0.147900
     24 C26         -2.6470     0.9710     1.1480 ca         1 08R      -0.072000
     25 C25         -2.8920     2.3430     0.9740 ca         1 08R      -0.151000
     26 C24         -4.1320     2.7790     0.4860 ca         1 08R      -0.069000
     27 C23         -5.1320     1.8430     0.1730 ca         1 08R      -0.207000
     28 H1           2.9940     2.1730     3.2080 hn         1 08R       0.465000
     29 H2           4.1500     3.4350     2.9860 hn         1 08R       0.465000
     30 H3           4.6580     4.2390     0.6740 ha         1 08R       0.118000
     31 H4           4.9810     3.1190    -2.8900 hc         1 08R       0.046033
     32 H5           4.0650     4.5810    -2.4830 hc         1 08R       0.046033
     33 H6           5.6070     4.2440    -1.6770 hc         1 08R       0.046033
     34 H7           3.0170     1.5920    -2.3160 ha         1 08R       0.121000
     35 H8           0.8630    -0.1020     0.2620 hc         1 08R       0.066200
     36 H9           0.9660     0.2700    -1.4400 hc         1 08R       0.066200
     37 H10          3.0900    -1.0340    -1.6100 hc         1 08R       0.046700
     38 H11          3.9490    -1.1590     0.7450 h1         1 08R       0.064700
     39 H12          2.4590    -1.9750     1.2750 h1         1 08R       0.064700
     40 H13          4.3620    -2.9020    -0.8030 hn         1 08R       0.394000
     41 H15          2.7860    -4.3120    -1.6520 h1         1 08R       0.049700
     42 H16          1.9410    -4.3910    -0.1000 h1         1 08R       0.049700
     43 H17          1.2840    -2.5250    -2.2860 h1         1 08R       0.042700
     44 H18         -0.9560    -3.5050    -1.7690 h1         1 08R       0.029200
     45 H19         -0.2550    -4.5610    -0.5200 h1         1 08R       0.029200
     46 H20         -2.6670    -4.0430    -0.0460 h1         1 08R       0.036200
     47 H21         -1.5790    -3.4700     1.2300 h1         1 08R       0.036200
     48 H22         -1.5660    -1.3220     0.0450 hn         1 08R       0.420000
     49 H24         -4.2550    -2.0560     1.0180 h1         1 08R       0.035200
     50 H25         -2.8940    -1.5840     2.0380 h1         1 08R       0.035200
     51 H26         -7.0720     0.4040    -1.4170 h1         1 08R       0.038700
     52 H27         -7.7630    -1.0290    -0.6260 h1         1 08R       0.038700
     53 H28         -7.6960     0.5130     0.2520 h1         1 08R       0.038700
     54 H29         -1.6810     0.6450     1.5290 ha         1 08R       0.112000
     55 H30         -2.1180     3.0680     1.2170 ha         1 08R       0.116000
     56 H31         -4.3200     3.8420     0.3520 ha         1 08R       0.109000
     57 H32         -6.0820     2.2110    -0.2000 ha         1 08R       0.115000
@<TRIPOS>BOND
     1     1     2 1   
     2     1    28 1   
     3     1    29 1   
     4     2     3 ar  
     5     2     7 ar  
     6     3     4 ar  
     7     3    30 1   
     8     4     5 1   
     9     4     6 ar  
    10     5    31 1   
    11     5    32 1   
    12     5    33 1   
    13     6     8 ar  
    14     6    34 1   
    15     7     8 ar  
    16     8     9 1   
    17     9    10 1   
    18     9    35 1   
    19     9    36 1   
    20    10    11 1   
    21    10    14 1   
    22    10    37 1   
    23    11    12 1   
    24    11    38 1   
    25    11    39 1   
    26    12    13 1   
    27    12    40 1   
    28    13    14 1   
    29    13    41 1   
    30    13    42 1   
    31    14    15 1   
    32    14    43 1   
    33    15    16 1   
    34    16    17 1   
    35    16    44 1   
    36    16    45 1   
    37    17    18 1   
    38    17    46 1   
    39    17    47 1   
    40    18    19 1   
    41    18    48 1   
    42    19    20 1   
    43    19    49 1   
    44    19    50 1   
    45    20    21 ar  
    46    20    24 ar  
    47    21    22 1   
    48    21    27 ar  
    49    22    23 1   
    50    23    51 1   
    51    23    52 1   
    52    23    53 1   
    53    24    25 ar  
    54    24    54 1   
    55    25    26 ar  
    56    25    55 1   
    57    26    27 ar  
    58    26    56 1   
    59    27    57 1   
@<TRIPOS>SUBSTRUCTURE
     1 08R         1 TEMP              0 ****  ****    0 ROOT
