@<TRIPOS>MOLECULE
08U
   26    26     1     0     0
SMALL
abcg2


@<TRIPOS>ATOM
      1 C1         -18.4330   -13.3060   -14.9000 c5         1 08U       0.310700
      2 C2         -18.1800   -14.4360   -15.9150 c5         1 08U       0.095300
      3 C3         -16.8210   -14.0530   -16.4840 c5         1 08U       0.141300
      4 C4         -16.8670   -12.5240   -16.4470 c5         1 08U       0.162300
      5 C5         -15.5550   -11.8640   -16.0810 c3         1 08U       0.152600
      6 C7         -19.8820   -13.2890   -12.2840 c3         1 08U      -0.010400
      7 O2         -18.1630   -15.7270   -15.3910 oh         1 08U      -0.698000
      8 O3         -16.5810   -14.4840   -17.7970 oh         1 08U      -0.711000
      9 O4         -17.8830   -12.1690   -15.5090 os         1 08U      -0.450000
     10 O5         -15.1330   -12.3320   -14.8240 oh         1 08U      -0.728000
     11 O6         -17.7340   -13.7060   -11.3800 o          1 08U      -0.580100
     12 N1         -17.8320   -13.5610   -13.6180 ns         1 08U      -0.509900
     13 H1         -19.5000   -13.1370   -14.7620 h2         1 08U       0.082700
     14 H2         -18.9270   -14.3250   -16.7140 h1         1 08U       0.058700
     15 H3         -16.0410   -14.4290   -15.8070 h1         1 08U       0.072700
     16 H4         -17.1620   -12.1540   -17.4360 h1         1 08U       0.082700
     17 H5         -14.8340   -12.0960   -16.8750 h1         1 08U       0.036200
     18 H6         -15.6920   -10.7740   -16.0840 h1         1 08U       0.036200
     19 BR         -20.8300   -14.9660   -12.6360 br         1 08U      -0.245000
     20 H8         -20.1190   -12.9990   -11.2630 h1         1 08U       0.096200
     21 H9         -20.2710   -12.5370   -12.9670 h1         1 08U       0.096200
     22 H10        -19.0640   -15.9930   -15.1790 ho         1 08U       0.520000
     23 H11        -16.3570   -15.4190   -17.7720 ho         1 08U       0.522000
     24 H12        -14.2650   -11.9670   -14.6310 ho         1 08U       0.513000
     25 H13        -16.8300   -13.7120   -13.6140 hn         1 08U       0.336500
     26 C6         -18.3890   -13.5300   -12.3920 c          1 08U       0.618100
@<TRIPOS>BOND
     1     1     2 1   
     2     1     9 1   
     3     1    12 1   
     4     1    13 1   
     5     2     3 1   
     6     2     7 1   
     7     2    14 1   
     8     3     4 1   
     9     3     8 1   
    10     3    15 1   
    11     4     5 1   
    12     4     9 1   
    13     4    16 1   
    14     5    10 1   
    15     5    17 1   
    16     5    18 1   
    17     6    19 1   
    18     6    20 1   
    19     6    21 1   
    20     6    26 1   
    21     7    22 1   
    22     8    23 1   
    23    10    24 1   
    24    11    26 2   
    25    12    25 1   
    26    12    26 1   
@<TRIPOS>SUBSTRUCTURE
     1 08U         1 TEMP              0 ****  ****    0 ROOT
