@<TRIPOS>MOLECULE
08U
   26    26     1     0     0
SMALL
No Charge or Current Charge


@<TRIPOS>ATOM
      1 C1         -18.5290   -13.0710   -14.9750 c5         1 08U       0.310700
      2 C2         -18.2720   -14.3590   -15.8450 c5         1 08U       0.095300
      3 C3         -16.8130   -14.0950   -16.3230 c5         1 08U       0.141300
      4 C4         -16.8220   -12.5360   -16.5220 c5         1 08U       0.162300
      5 C5         -15.5100   -11.8170   -16.0840 c3         1 08U       0.152600
      6 C7         -19.7750   -13.5750   -12.3460 c3         1 08U      -0.010400
      7 O2         -18.3990   -15.6350   -15.1830 oh         1 08U      -0.698000
      8 O3         -16.4960   -14.8410   -17.5090 oh         1 08U      -0.711000
      9 O4         -17.9700   -12.0200   -15.7800 os         1 08U      -0.450000
     10 O5         -15.1230   -12.1460   -14.7310 oh         1 08U      -0.728000
     11 O6         -17.5210   -14.2610   -11.8070 o          1 08U      -0.580100
     12 N1         -17.7280   -13.1640   -13.7540 ns         1 08U      -0.509900
     13 H1         -19.5980   -12.8920   -14.8010 h2         1 08U       0.082700
     14 H2         -18.9500   -14.3280   -16.7100 h1         1 08U       0.058700
     15 H3         -16.1120   -14.3690   -15.5210 h1         1 08U       0.072700
     16 H4         -16.9880   -12.2980   -17.5810 h1         1 08U       0.082700
     17 H5         -14.7130   -12.1060   -16.7820 h1         1 08U       0.036200
     18 H6         -15.6570   -10.7330   -16.1870 h1         1 08U       0.036200
     19 Br         -20.9310   -15.0210   -13.1140 br         1 08U      -0.245000
     20 H8         -19.9300   -13.5930   -11.2620 h1         1 08U       0.096200
     21 H9         -20.1270   -12.6140   -12.7370 h1         1 08U       0.096200
     22 H10        -19.3510   -15.7600   -14.9540 ho         1 08U       0.520000
     23 H11        -16.7370   -15.7780   -17.3100 ho         1 08U       0.522000
     24 H12        -14.3110   -11.6230   -14.5300 ho         1 08U       0.513000
     25 H13        -16.7160   -13.1140   -13.7920 hn         1 08U       0.336500
     26 C6         -18.2660   -13.7380   -12.6230 c          1 08U       0.618100
@<TRIPOS>BOND
     1     1     2 1   
     2     1     9 1   
     3     1    12 1   
     4     1    13 1   
     5     2     3 1   
     6     2     7 1   
     7     2    14 1   
     8     3     4 1   
     9     3     8 1   
    10     3    15 1   
    11     4     5 1   
    12     4     9 1   
    13     4    16 1   
    14     5    10 1   
    15     5    17 1   
    16     5    18 1   
    17     6    19 1   
    18     6    20 1   
    19     6    21 1   
    20     6    26 1   
    21     7    22 1   
    22     8    23 1   
    23    10    24 1   
    24    11    26 2   
    25    12    25 1   
    26    12    26 1   
@<TRIPOS>SUBSTRUCTURE
     1 08U         1 TEMP              0 ****  ****    0 ROOT
