@<TRIPOS>MOLECULE
08V
   51    54     1     0     0
SMALL
No Charge or Current Charge


@<TRIPOS>ATOM
      1 C01         -4.7390   -27.0130    -5.6640 c3         1 08V       0.147100
      2 C03         -4.9340   -24.7480    -6.6380 c6         1 08V       0.162800
      3 C04         -6.3320   -24.9790    -7.2590 c6         1 08V      -0.067100
      4 C05         -6.3150   -25.8950    -8.4910 ca         1 08V      -0.044300
      5 C06         -7.4730   -25.9840    -9.2650 ca         1 08V      -0.185000
      6 C07         -7.5300   -26.8310   -10.3880 ca         1 08V       0.111100
      7 C08         -6.3700   -27.5800   -10.7700 ca         1 08V       0.083100
      8 C09         -5.1450   -27.4230   -10.0330 ca         1 08V       0.011000
      9 C10         -5.1670   -26.6340    -8.8440 ca         1 08V      -0.124300
     10 C11         -3.9010   -26.4860    -7.9840 c6         1 08V       0.225800
     11 C12         -3.0650   -27.7750    -8.0370 c6         1 08V      -0.026100
     12 C13         -2.8520   -28.1920    -9.4810 ca         1 08V      -0.064300
     13 C14         -3.8930   -28.0240   -10.4310 ca         1 08V      -0.027000
     14 C15         -3.6090   -28.4070   -11.7700 ca         1 08V      -0.134000
     15 C16         -2.3780   -29.0030   -12.1320 ca         1 08V       0.100100
     16 C17         -1.3850   -29.2070   -11.1530 ca         1 08V       0.121100
     17 C18         -1.6270   -28.7890    -9.8310 ca         1 08V      -0.169000
     18 C20          0.8810   -30.0390   -10.5970 c3         1 08V       0.145900
     19 C22         -3.0620   -29.2560   -14.5050 c3         1 08V       0.145900
     20 C24         -7.5700   -28.9820   -12.5000 c3         1 08V       0.147900
     21 C26         -9.9080   -26.1960   -10.7790 c3         1 08V       0.146900
     22 N02         -4.1510   -26.0070    -6.5890 n3         1 08V      -0.708600
     23 O19         -0.1880   -29.7970   -11.5290 os         1 08V      -0.328100
     24 O21         -2.1050   -29.3850   -13.4370 os         1 08V      -0.331100
     25 O23         -6.4060   -28.5560   -11.7680 os         1 08V      -0.354100
     26 O25         -8.7090   -26.9200   -11.1150 os         1 08V      -0.343100
     27 H1          -4.9870   -26.5530    -4.6990 h1         1 08V       0.033700
     28 H2          -5.6560   -27.4520    -6.0800 h1         1 08V       0.033700
     29 H3          -4.0300   -27.8260    -5.4630 h1         1 08V       0.033700
     30 H4          -4.3990   -24.0020    -7.2460 h1         1 08V       0.056200
     31 H5          -5.0460   -24.3130    -5.6340 h1         1 08V       0.056200
     32 H6          -6.7710   -24.0070    -7.5190 hc         1 08V       0.052700
     33 H7          -6.9970   -25.4160    -6.5020 hc         1 08V       0.052700
     34 H8          -8.3330   -25.3990    -8.9570 ha         1 08V       0.117000
     35 H9          -3.2940   -25.7200    -8.4920 h1         1 08V       0.073700
     36 H10         -3.5760   -28.5950    -7.5180 hc         1 08V       0.059200
     37 H11         -2.1070   -27.6150    -7.5250 hc         1 08V       0.059200
     38 H12         -4.3110   -28.1790   -12.5580 ha         1 08V       0.126000
     39 H13         -0.8730   -28.9220    -9.0610 ha         1 08V       0.118000
     40 H14          1.7280   -30.5160   -11.1070 h1         1 08V       0.040700
     41 H15          1.2360   -29.0980   -10.1570 h1         1 08V       0.040700
     42 H16          0.5520   -30.7050    -9.7890 h1         1 08V       0.040700
     43 H17         -2.6410   -29.6450   -15.4400 h1         1 08V       0.040033
     44 H18         -3.9750   -29.8230   -14.2810 h1         1 08V       0.040033
     45 H19         -3.3290   -28.2040   -14.6650 h1         1 08V       0.040033
     46 H20         -7.3070   -29.8090   -13.1720 h1         1 08V       0.038033
     47 H21         -8.3540   -29.3400   -11.8210 h1         1 08V       0.038033
     48 H22         -7.9670   -28.1680   -13.1200 h1         1 08V       0.038033
     49 H23        -10.7050   -26.4320   -11.4940 h1         1 08V       0.041700
     50 H24        -10.2610   -26.4690    -9.7760 h1         1 08V       0.041700
     51 H25         -9.7330   -25.1130   -10.8120 h1         1 08V       0.041700
@<TRIPOS>BOND
     1     1    22 1   
     2     1    27 1   
     3     1    28 1   
     4     1    29 1   
     5     2     3 1   
     6     2    22 1   
     7     2    30 1   
     8     2    31 1   
     9     3     4 1   
    10     3    32 1   
    11     3    33 1   
    12     4     5 ar  
    13     4     9 ar  
    14     5     6 ar  
    15     5    34 1   
    16     6     7 ar  
    17     6    26 1   
    18     7     8 ar  
    19     7    25 1   
    20     8     9 ar  
    21     8    13 1   
    22     9    10 1   
    23    10    11 1   
    24    10    22 1   
    25    10    35 1   
    26    11    12 1   
    27    11    36 1   
    28    11    37 1   
    29    12    13 ar  
    30    12    17 ar  
    31    13    14 ar  
    32    14    15 ar  
    33    14    38 1   
    34    15    16 ar  
    35    15    24 1   
    36    16    17 ar  
    37    16    23 1   
    38    17    39 1   
    39    18    23 1   
    40    18    40 1   
    41    18    41 1   
    42    18    42 1   
    43    19    24 1   
    44    19    43 1   
    45    19    44 1   
    46    19    45 1   
    47    20    25 1   
    48    20    46 1   
    49    20    47 1   
    50    20    48 1   
    51    21    26 1   
    52    21    49 1   
    53    21    50 1   
    54    21    51 1   
@<TRIPOS>SUBSTRUCTURE
     1 08V         1 TEMP              0 ****  ****    0 ROOT
