@<TRIPOS>MOLECULE
08V
   51    54     1     0     0
SMALL
abcg2


@<TRIPOS>ATOM
      1 C01         -4.5940   -26.7770    -5.7270 c3         1 08V       0.147100
      2 C03         -4.8910   -24.6650    -6.8790 c6         1 08V       0.162800
      3 C04         -6.3240   -24.9580    -7.3260 c6         1 08V      -0.067100
      4 C05         -6.3660   -25.9510    -8.4640 ca         1 08V      -0.044300
      5 C06         -7.5760   -26.1710    -9.1260 ca         1 08V      -0.185000
      6 C07         -7.6530   -27.0850   -10.1640 ca         1 08V       0.111100
      7 C08         -6.4900   -27.7470   -10.6050 ca         1 08V       0.083100
      8 C09         -5.2640   -27.5270    -9.9640 ca         1 08V       0.011000
      9 C10         -5.2310   -26.6550    -8.8470 ca         1 08V      -0.124300
     10 C11         -3.9220   -26.4830    -8.0850 c6         1 08V       0.225800
     11 C12         -3.1900   -27.8180    -8.0410 c6         1 08V      -0.026100
     12 C13         -2.9650   -28.2990    -9.4450 ca         1 08V      -0.064300
     13 C14         -3.9880   -28.1560   -10.3890 ca         1 08V      -0.027000
     14 C15         -3.7300   -28.5630   -11.7100 ca         1 08V      -0.134000
     15 C16         -2.5180   -29.1190   -12.0790 ca         1 08V       0.100100
     16 C17         -1.5030   -29.2830   -11.1130 ca         1 08V       0.121100
     17 C18         -1.7440   -28.8630    -9.8130 ca         1 08V      -0.169000
     18 C20          0.7180   -29.9950   -10.6040 c3         1 08V       0.145900
     19 C22         -3.2020   -29.3640   -14.3550 c3         1 08V       0.145900
     20 C24         -6.9190   -28.1800   -12.9150 c3         1 08V       0.147900
     21 C26        -10.0050   -26.7420   -10.4260 c3         1 08V       0.146900
     22 N02         -4.0810   -25.8770    -6.7580 n3         1 08V      -0.708600
     23 O19         -0.3400   -29.8350   -11.5470 os         1 08V      -0.328100
     24 O21         -2.2120   -29.5280   -13.3430 os         1 08V      -0.331100
     25 O23         -6.5990   -28.6830   -11.6090 os         1 08V      -0.354100
     26 O25         -8.8080   -27.4160   -10.8060 os         1 08V      -0.343100
     27 H1          -4.7600   -26.1980    -4.8180 h1         1 08V       0.033700
     28 H2          -5.5400   -27.2730    -5.9910 h1         1 08V       0.033700
     29 H3          -3.8610   -27.5510    -5.5020 h1         1 08V       0.033700
     30 H4          -4.4030   -24.0140    -7.6100 h1         1 08V       0.056200
     31 H5          -4.8920   -24.1420    -5.9210 h1         1 08V       0.056200
     32 H6          -6.8160   -24.0310    -7.6300 hc         1 08V       0.052700
     33 H7          -6.9050   -25.3480    -6.4850 hc         1 08V       0.052700
     34 H8          -8.4560   -25.6350    -8.8010 ha         1 08V       0.117000
     35 H9          -3.2890   -25.7890    -8.6560 h1         1 08V       0.073700
     36 H10         -3.7920   -28.5500    -7.4940 hc         1 08V       0.059200
     37 H11         -2.2410   -27.7120    -7.5140 hc         1 08V       0.059200
     38 H12         -4.4840   -28.4280   -12.4620 ha         1 08V       0.126000
     39 H13         -0.9720   -28.9590    -9.0620 ha         1 08V       0.118000
     40 H14          1.5410   -30.4450   -11.1530 h1         1 08V       0.040700
     41 H15          1.0310   -29.0300   -10.1980 h1         1 08V       0.040700
     42 H16          0.4180   -30.6530    -9.7850 h1         1 08V       0.040700
     43 H17         -2.7570   -29.7460   -15.2710 h1         1 08V       0.040033
     44 H18         -4.1050   -29.9330   -14.1200 h1         1 08V       0.040033
     45 H19         -3.4620   -28.3100   -14.4860 h1         1 08V       0.040033
     46 H20         -6.7710   -29.0090   -13.6040 h1         1 08V       0.038033
     47 H21         -7.9510   -27.8350   -12.9610 h1         1 08V       0.038033
     48 H22         -6.2490   -27.3600   -13.1850 h1         1 08V       0.038033
     49 H23        -10.7880   -27.1480   -11.0610 h1         1 08V       0.041700
     50 H24        -10.2470   -26.9300    -9.3770 h1         1 08V       0.041700
     51 H25         -9.9190   -25.6650   -10.5910 h1         1 08V       0.041700
@<TRIPOS>BOND
     1     1    22 1   
     2     1    27 1   
     3     1    28 1   
     4     1    29 1   
     5     2     3 1   
     6     2    22 1   
     7     2    30 1   
     8     2    31 1   
     9     3     4 1   
    10     3    32 1   
    11     3    33 1   
    12     4     5 ar  
    13     4     9 ar  
    14     5     6 ar  
    15     5    34 1   
    16     6     7 ar  
    17     6    26 1   
    18     7     8 ar  
    19     7    25 1   
    20     8     9 ar  
    21     8    13 1   
    22     9    10 1   
    23    10    11 1   
    24    10    22 1   
    25    10    35 1   
    26    11    12 1   
    27    11    36 1   
    28    11    37 1   
    29    12    13 ar  
    30    12    17 ar  
    31    13    14 ar  
    32    14    15 ar  
    33    14    38 1   
    34    15    16 ar  
    35    15    24 1   
    36    16    17 ar  
    37    16    23 1   
    38    17    39 1   
    39    18    23 1   
    40    18    40 1   
    41    18    41 1   
    42    18    42 1   
    43    19    24 1   
    44    19    43 1   
    45    19    44 1   
    46    19    45 1   
    47    20    25 1   
    48    20    46 1   
    49    20    47 1   
    50    20    48 1   
    51    21    26 1   
    52    21    49 1   
    53    21    50 1   
    54    21    51 1   
@<TRIPOS>SUBSTRUCTURE
     1 08V         1 TEMP              0 ****  ****    0 ROOT
