@<TRIPOS>MOLECULE
08X
  103   106     1     0     0
SMALL
bcc


@<TRIPOS>ATOM
      1 C26         -5.0460    -1.6800     0.6170 c          1 08X       0.693300
      2 O27         -4.7660    -1.3390     1.7550 o          1 08X      -0.589100
      3 C28         -5.9300    -0.8340    -0.2520 ce         1 08X      -0.157200
      4 C29         -5.5160     0.1600    -1.0300 cf         1 08X      -0.208200
      5 C30         -4.0820     0.5260    -1.1350 c          1 08X       0.661300
      6 O31         -3.1880    -0.1950    -0.7220 o          1 08X      -0.583100
      7 C01         -7.6960     3.7650     3.5340 ca         1 08X      -0.124000
      8 C02         -7.3670     2.4210     3.4090 ca         1 08X      -0.133500
      9 C03         -6.2020     2.0480     2.7560 ca         1 08X      -0.114500
     10 C04         -5.3460     3.0080     2.2080 ca         1 08X      -0.064800
     11 C05         -5.6840     4.3570     2.3490 ca         1 08X      -0.114500
     12 C06         -6.8470     4.7300     3.0020 ca         1 08X      -0.133500
     13 C07         -4.1410     2.5540     1.5100 ce         1 08X      -0.091200
     14 C08         -3.3990     3.2560     0.6520 c2         1 08X      -0.188200
     15 C09         -2.2250     2.6670    -0.0590 c3         1 08X      -0.073200
     16 C10         -2.5490     2.3530    -1.5390 c3         1 08X       0.040700
     17 C11         -1.4870     1.5070    -2.2590 c          1 08X       0.677100
     18 O12         -1.7480     0.9370    -3.3040 o          1 08X      -0.583100
     19 N32         -3.8390     1.7280    -1.6900 ns         1 08X      -0.541900
     20 N13         -0.2610     1.5190    -1.7070 ns         1 08X      -0.544900
     21 C14          0.7920     0.6270    -2.1110 c3         1 08X       0.029700
     22 C15          0.8060    -0.5870    -1.1790 c          1 08X       0.646100
     23 O16          0.2760    -0.5670    -0.0820 o          1 08X      -0.593100
     24 C48          2.1620     1.3160    -2.0600 c3         1 08X      -0.078400
     25 C49          2.2480     2.6310    -2.8280 c6         1 08X      -0.055700
     26 C50          3.6550     3.2160    -2.6940 c6         1 08X      -0.073900
     27 C51          3.8020     4.5370    -3.4400 c6         1 08X      -0.072400
     28 C52          3.4230     4.3840    -4.9100 c6         1 08X      -0.075400
     29 C53          2.0200     3.8060    -5.0550 c6         1 08X      -0.072400
     30 C54          1.8720     2.4860    -4.3030 c6         1 08X      -0.073900
     31 C19          0.2670    -3.4490    -0.5760 c          1 08X       0.663100
     32 O20         -0.4810    -3.6540    -1.5190 o          1 08X      -0.594100
     33 C18          1.6550    -2.8450    -0.8360 c3         1 08X       0.043700
     34 N17          1.4910    -1.6490    -1.6320 ns         1 08X      -0.563900
     35 C36          2.5550    -2.6390     0.3830 c3         1 08X      -0.091400
     36 C37          3.9020    -2.0360     0.0090 c3         1 08X      -0.091400
     37 C38          4.8200    -1.9280     1.2160 c3         1 08X       0.104000
     38 N39          6.0240    -1.2080     0.8640 ns         1 08X      -0.554900
     39 C40          7.1360    -1.2210     1.5990 c          1 08X       0.578600
     40 O41          7.2850    -1.8710     2.6250 o          1 08X      -0.600100
     41 C42          8.2440    -0.3570     1.0700 ca         1 08X       0.234500
     42 N47          8.0250     0.3500    -0.0310 nb         1 08X      -0.645000
     43 C46          9.0110     1.1110    -0.4730 ca         1 08X       0.284900
     44 C45         10.2310     1.1650     0.1920 ca         1 08X       0.304900
     45 N44         10.4560     0.4600     1.2900 nb         1 08X      -0.634000
     46 C43          9.4640    -0.3020     1.7320 ca         1 08X       0.345900
     47 N25         -4.6920    -2.8470     0.0620 ns         1 08X      -0.543900
     48 C24         -3.8540    -3.8300     0.7030 c3         1 08X       0.052700
     49 C33         -4.6040    -4.4850     1.8690 c          1 08X       0.660100
     50 O34         -5.7570    -4.2080     2.1420 o          1 08X      -0.582100
     51 C23         -2.4550    -3.2810     1.0480 c3         1 08X      -0.122400
     52 C22         -1.3410    -4.3380     1.0150 c3         1 08X       0.105000
     53 N21         -0.0480    -3.7850     0.6830 ns         1 08X      -0.558900
     54 N35         -3.8950    -5.3980     2.5580 nt         1 08X      -0.676000
     55 H28         -6.9920    -1.0400    -0.1720 ha         1 08X       0.150000
     56 H29         -6.2440     0.7550    -1.5700 ha         1 08X       0.136000
     57 H02         -8.0200     1.6620     3.8200 ha         1 08X       0.130500
     58 H03         -5.9490     0.9990     2.6510 ha         1 08X       0.140500
     59 H05         -5.0270     5.1240     1.9560 ha         1 08X       0.140500
     60 H06         -7.0930     5.7790     3.1040 ha         1 08X       0.130500
     61 H109        -1.3920     3.3750    -0.0290 hc         1 08X       0.066700
     62 H209        -1.9110     1.7560     0.4510 hc         1 08X       0.066700
     63 H10         -2.6020     3.2980    -2.0880 h1         1 08X       0.069700
     64 HN32        -4.6160     2.3210    -1.9280 hn         1 08X       0.320500
     65 H107        -3.8680     1.5170     1.6940 ha         1 08X       0.147000
     66 H108        -3.6640     4.2790     0.4000 ha         1 08X       0.116000
     67 HN13        -0.1590     1.9090    -0.7850 hn         1 08X       0.321500
     68 H14          0.5850     0.2940    -3.1280 h1         1 08X       0.099700
     69 H148         2.4310     1.4990    -1.0130 hc         1 08X       0.045200
     70 H248         2.9100     0.6210    -2.4530 hc         1 08X       0.045200
     71 H49          1.5470     3.3410    -2.3710 hc         1 08X       0.053700
     72 H150         3.8980     3.3510    -1.6350 hc         1 08X       0.039700
     73 H250         4.3810     2.4940    -3.0890 hc         1 08X       0.039700
     74 H151         3.1560     5.2900    -2.9760 hc         1 08X       0.039450
     75 H251         4.8260     4.9070    -3.3470 hc         1 08X       0.039450
     76 H152         3.4920     5.3460    -5.4230 hc         1 08X       0.038700
     77 H252         4.1410     3.7170    -5.4000 hc         1 08X       0.038700
     78 H153         1.2910     4.5250    -4.6650 hc         1 08X       0.039450
     79 H253         1.7770     3.6610    -6.1110 hc         1 08X       0.039450
     80 H154         2.5150     1.7270    -4.7640 hc         1 08X       0.039700
     81 H254         0.8440     2.1280    -4.4060 hc         1 08X       0.039700
     82 H18          2.1530    -3.5680    -1.4880 h1         1 08X       0.070700
     83 HN17         1.8540    -1.6430    -2.5710 hn         1 08X       0.327500
     84 H136         2.0700    -1.9980     1.1230 hc         1 08X       0.059700
     85 H236         2.7170    -3.6130     0.8540 hc         1 08X       0.059700
     86 H137         4.3860    -2.6390    -0.7650 hc         1 08X       0.047700
     87 H237         3.7500    -1.0390    -0.4140 hc         1 08X       0.047700
     88 H138         4.3000    -1.4180     2.0340 h1         1 08X       0.054700
     89 H238         5.0880    -2.9220     1.5780 h1         1 08X       0.054700
     90 HN39         6.0060    -0.5970     0.0600 hn         1 08X       0.338500
     91 H46          8.8390     1.6910    -1.3700 h4         1 08X       0.033100
     92 H45         11.0330     1.7920    -0.1770 h4         1 08X       0.034100
     93 H43          9.6400    -0.8800     2.6300 h4         1 08X       0.057100
     94 HN25        -4.9450    -3.0110    -0.8980 hn         1 08X       0.324500
     95 H24         -3.7180    -4.6160    -0.0480 h1         1 08X       0.059700
     96 H123        -2.2310    -2.5250     0.2960 hc         1 08X       0.089700
     97 H223        -2.4630    -2.7710     2.0110 hc         1 08X       0.089700
     98 H122        -1.2280    -4.8280     1.9820 h1         1 08X       0.043700
     99 H222        -1.5780    -5.1150     0.2850 h1         1 08X       0.043700
    100 HN21         0.5480    -3.4970     1.4410 hn         1 08X       0.321500
    101 H135        -3.0210    -5.7640     2.2240 hn         1 08X       0.306500
    102 H235        -4.3570    -5.9390     3.2710 hn         1 08X       0.306500
    103 H01         -8.6030     4.0600     4.0450 ha         1 08X       0.129000
@<TRIPOS>BOND
     1     1     2 2   
     2     1     3 1   
     3     1    47 1   
     4     3     4 2   
     5     3    55 1   
     6     4     5 1   
     7     4    56 1   
     8     5     6 2   
     9     5    19 1   
    10     7     8 ar  
    11     7    12 ar  
    12     7   103 1   
    13     8     9 ar  
    14     8    57 1   
    15     9    10 ar  
    16     9    58 1   
    17    10    11 ar  
    18    10    13 1   
    19    11    12 ar  
    20    11    59 1   
    21    12    60 1   
    22    13    14 2   
    23    13    65 1   
    24    14    15 1   
    25    14    66 1   
    26    15    16 1   
    27    15    61 1   
    28    15    62 1   
    29    16    17 1   
    30    16    19 1   
    31    16    63 1   
    32    17    18 2   
    33    17    20 1   
    34    19    64 1   
    35    20    21 1   
    36    20    67 1   
    37    21    22 1   
    38    21    24 1   
    39    21    68 1   
    40    22    23 2   
    41    22    34 1   
    42    24    25 1   
    43    24    69 1   
    44    24    70 1   
    45    25    26 1   
    46    25    30 1   
    47    25    71 1   
    48    26    27 1   
    49    26    72 1   
    50    26    73 1   
    51    27    28 1   
    52    27    74 1   
    53    27    75 1   
    54    28    29 1   
    55    28    76 1   
    56    28    77 1   
    57    29    30 1   
    58    29    78 1   
    59    29    79 1   
    60    30    80 1   
    61    30    81 1   
    62    31    32 2   
    63    31    33 1   
    64    31    53 1   
    65    33    34 1   
    66    33    35 1   
    67    33    82 1   
    68    34    83 1   
    69    35    36 1   
    70    35    84 1   
    71    35    85 1   
    72    36    37 1   
    73    36    86 1   
    74    36    87 1   
    75    37    38 1   
    76    37    88 1   
    77    37    89 1   
    78    38    39 1   
    79    38    90 1   
    80    39    40 2   
    81    39    41 1   
    82    41    42 ar  
    83    41    46 ar  
    84    42    43 ar  
    85    43    44 ar  
    86    43    91 1   
    87    44    45 ar  
    88    44    92 1   
    89    45    46 ar  
    90    46    93 1   
    91    47    48 1   
    92    47    94 1   
    93    48    49 1   
    94    48    51 1   
    95    48    95 1   
    96    49    50 2   
    97    49    54 1   
    98    51    52 1   
    99    51    96 1   
   100    51    97 1   
   101    52    53 1   
   102    52    98 1   
   103    52    99 1   
   104    53   100 1   
   105    54   101 1   
   106    54   102 1   
@<TRIPOS>SUBSTRUCTURE
     1 08X         1 TEMP              0 ****  ****    0 ROOT
