@<TRIPOS>MOLECULE
08X
  103   106     1     0     0
SMALL
No Charge or Current Charge


@<TRIPOS>ATOM
      1 C26         -4.7050    -2.5730     0.7400 c          1 08X       0.626300
      2 O27         -4.0440    -2.1530     1.6780 o          1 08X      -0.589100
      3 C28         -5.5700    -1.7170    -0.1320 ce         1 08X      -0.207200
      4 C29         -5.3220    -0.4440    -0.6030 cf         1 08X      -0.258200
      5 C30         -4.0610     0.3470    -0.4640 c          1 08X       0.594300
      6 O31         -3.0880    -0.0340     0.1620 o          1 08X      -0.583100
      7 C01         -7.4170     5.5150     3.5680 ca         1 08X      -0.106000
      8 C02         -7.2910     4.1230     3.7060 ca         1 08X      -0.115500
      9 C03         -6.2430     3.4440     3.0600 ca         1 08X      -0.096500
     10 C04         -5.3130     4.1460     2.2660 ca         1 08X      -0.064800
     11 C05         -5.4450     5.5460     2.1380 ca         1 08X      -0.096500
     12 C06         -6.4930     6.2250     2.7850 ca         1 08X      -0.115500
     13 C07         -4.2140     3.3890     1.5980 ce         1 08X      -0.141200
     14 C08         -3.4250     3.8450     0.5990 c2         1 08X      -0.238200
     15 C09         -2.3250     3.0440    -0.0740 c3         1 08X      -0.073200
     16 C10         -2.8040     2.3410    -1.3780 c3         1 08X       0.040700
     17 C11         -1.7230     1.4810    -2.1230 c          1 08X       0.610100
     18 O12         -2.0130     0.7500    -3.0630 o          1 08X      -0.583100
     19 N32         -4.0300     1.5250    -1.1780 ns         1 08X      -0.474900
     20 N13         -0.4160     1.5840    -1.6840 ns         1 08X      -0.477900
     21 C14          0.7000     0.7460    -2.1860 c3         1 08X       0.029700
     22 C15          0.8320    -0.5470    -1.3280 c          1 08X       0.579100
     23 O16          0.3650    -0.6510    -0.2010 o          1 08X      -0.593100
     24 C48          2.0290     1.5460    -2.2090 c3         1 08X      -0.078400
     25 C49          2.0160     2.8840    -3.0160 c6         1 08X      -0.055700
     26 C50          3.3830     3.6130    -2.8890 c6         1 08X      -0.073900
     27 C51          3.3930     4.9500    -3.6710 c6         1 08X      -0.072400
     28 C52          3.0330     4.7290    -5.1590 c6         1 08X      -0.075400
     29 C53          1.6710     4.0090    -5.2990 c6         1 08X      -0.072400
     30 C54          1.6560     2.6730    -4.5160 c6         1 08X      -0.073900
     31 C19          0.3070    -3.6910    -1.2850 c          1 08X       0.596100
     32 O20         -0.5640    -3.5130    -2.1290 o          1 08X      -0.594100
     33 C18          1.6850    -2.9440    -1.3450 c3         1 08X       0.043700
     34 N17          1.5090    -1.5910    -1.9340 ns         1 08X      -0.496900
     35 C36          2.5070    -2.9420    -0.0190 c3         1 08X      -0.091400
     36 C37          3.8340    -2.1460    -0.1020 c3         1 08X      -0.091400
     37 C38          4.6560    -2.2160     1.1990 c3         1 08X       0.104000
     38 N39          5.8980    -1.4520     1.0920 ns         1 08X      -0.487900
     39 C40          6.8350    -1.3210     2.0990 c          1 08X       0.511600
     40 O41          6.6750    -1.8620     3.1880 o          1 08X      -0.600100
     41 C42          8.0500    -0.4720     1.7540 ca         1 08X       0.234500
     42 N47          8.1530     0.1020     0.5070 nb         1 08X      -0.645000
     43 C46          9.2740     0.8450     0.2890 ca         1 08X       0.284900
     44 C45         10.2750     1.0180     1.2810 ca         1 08X       0.304900
     45 N44         10.1810     0.4540     2.5180 nb         1 08X      -0.634000
     46 C43          9.0590    -0.2910     2.7400 ca         1 08X       0.345900
     47 N25         -4.6970    -3.9020     0.3710 ns         1 08X      -0.476900
     48 C24         -3.6520    -4.8820     0.7690 c3         1 08X       0.052700
     49 C33         -3.9260    -5.4680     2.1950 c          1 08X       0.593100
     50 O34         -4.9100    -5.2010     2.8690 o          1 08X      -0.582100
     51 C23         -2.2190    -4.2890     0.5770 c3         1 08X      -0.122400
     52 C22         -1.1500    -5.2710     0.0450 c3         1 08X       0.105000
     53 N21          0.1150    -4.5810    -0.2410 ns         1 08X      -0.491900
     54 N35         -3.0060    -6.3330     2.6880 nt         1 08X      -0.609000
     55 H28         -6.4790    -2.2090    -0.4740 ha         1 08X       0.200000
     56 H29         -6.0810     0.0080    -1.2410 ha         1 08X       0.186000
     57 H02         -8.0040     3.5700     4.3130 ha         1 08X       0.112500
     58 H03         -6.1580     2.3650     3.1740 ha         1 08X       0.122500
     59 H05         -4.7370     6.1210     1.5470 ha         1 08X       0.122500
     60 H06         -6.5870     7.3040     2.6810 ha         1 08X       0.112500
     61 H109        -1.4940     3.7180    -0.3170 hc         1 08X       0.066700
     62 H209        -1.9230     2.3000     0.6250 hc         1 08X       0.066700
     63 H10         -3.0650     3.1390    -2.0840 h1         1 08X       0.069700
     64 HN32        -4.8690     1.7780    -1.6860 hn         1 08X       0.320500
     65 H107        -4.0780     2.3690     1.9640 ha         1 08X       0.197000
     66 H108        -3.5480     4.8490     0.1930 ha         1 08X       0.166000
     67 HN13        -0.2490     2.1750    -0.8790 hn         1 08X       0.321500
     68 H14          0.4710     0.4180    -3.2080 h1         1 08X       0.099700
     69 H148         2.3130     1.7570    -1.1700 hc         1 08X       0.045200
     70 H248         2.8180     0.8940    -2.6050 hc         1 08X       0.045200
     71 H49          1.2480     3.5250    -2.5600 hc         1 08X       0.053700
     72 H150         3.6070     3.8090    -1.8310 hc         1 08X       0.039700
     73 H250         4.1890     2.9650    -3.2620 hc         1 08X       0.039700
     74 H151         2.6790     5.6500    -3.2160 hc         1 08X       0.039450
     75 H251         4.3830     5.4200    -3.5930 hc         1 08X       0.039450
     76 H152         3.0020     5.6940    -5.6830 hc         1 08X       0.038700
     77 H252         3.8190     4.1340    -5.6460 hc         1 08X       0.038700
     78 H153         0.8680     4.6620    -4.9310 hc         1 08X       0.039450
     79 H253         1.4570     3.8210    -6.3600 hc         1 08X       0.039450
     80 H154         2.3640     1.9680    -4.9750 hc         1 08X       0.039700
     81 H254         0.6590     2.2210    -4.6100 hc         1 08X       0.039700
     82 H18          2.2780    -3.5220    -2.0670 h1         1 08X       0.070700
     83 HN17         1.8520    -1.4280    -2.8740 hn         1 08X       0.327500
     84 H136         1.8970    -2.5350     0.7960 hc         1 08X       0.059700
     85 H236         2.7460    -3.9780     0.2530 hc         1 08X       0.059700
     86 H137         4.4380    -2.5360    -0.9310 hc         1 08X       0.047700
     87 H237         3.6200    -1.0940    -0.3240 hc         1 08X       0.047700
     88 H138         4.0630    -1.8130     2.0310 h1         1 08X       0.054700
     89 H238         4.9020    -3.2620     1.4250 h1         1 08X       0.054700
     90 HN39         6.1130    -0.9710     0.2240 hn         1 08X       0.338500
     91 H46          9.3750     1.3070    -0.6920 h4         1 08X       0.033100
     92 H45         11.1610     1.6170     1.0800 h4         1 08X       0.034100
     93 H43          8.9710    -0.7480     3.7250 h4         1 08X       0.057100
     94 HN25        -5.3110    -4.1540    -0.3940 hn         1 08X       0.324500
     95 H24         -3.7500    -5.7300     0.0780 h1         1 08X       0.059700
     96 H123        -2.2830    -3.4650    -0.1430 hc         1 08X       0.089700
     97 H223        -1.8720    -3.8400     1.5150 hc         1 08X       0.089700
     98 H122        -0.9580    -6.0610     0.7810 h1         1 08X       0.043700
     99 H222        -1.5080    -5.7450    -0.8790 h1         1 08X       0.043700
    100 HN21         0.8810    -4.6950     0.4110 hn         1 08X       0.321500
    101 H135        -2.1940    -6.5800     2.1450 hn         1 08X       0.306500
    102 H235        -3.1510    -6.7340     3.6030 hn         1 08X       0.306500
    103 H01         -8.2270     6.0410     4.0680 ha         1 08X       0.111000
@<TRIPOS>BOND
     1     1     2 2   
     2     1     3 1   
     3     1    47 1   
     4     3     4 2   
     5     3    55 1   
     6     4     5 1   
     7     4    56 1   
     8     5     6 2   
     9     5    19 1   
    10     7     8 ar  
    11     7    12 ar  
    12     7   103 1   
    13     8     9 ar  
    14     8    57 1   
    15     9    10 ar  
    16     9    58 1   
    17    10    11 ar  
    18    10    13 1   
    19    11    12 ar  
    20    11    59 1   
    21    12    60 1   
    22    13    14 2   
    23    13    65 1   
    24    14    15 1   
    25    14    66 1   
    26    15    16 1   
    27    15    61 1   
    28    15    62 1   
    29    16    17 1   
    30    16    19 1   
    31    16    63 1   
    32    17    18 2   
    33    17    20 1   
    34    19    64 1   
    35    20    21 1   
    36    20    67 1   
    37    21    22 1   
    38    21    24 1   
    39    21    68 1   
    40    22    23 2   
    41    22    34 1   
    42    24    25 1   
    43    24    69 1   
    44    24    70 1   
    45    25    26 1   
    46    25    30 1   
    47    25    71 1   
    48    26    27 1   
    49    26    72 1   
    50    26    73 1   
    51    27    28 1   
    52    27    74 1   
    53    27    75 1   
    54    28    29 1   
    55    28    76 1   
    56    28    77 1   
    57    29    30 1   
    58    29    78 1   
    59    29    79 1   
    60    30    80 1   
    61    30    81 1   
    62    31    32 2   
    63    31    33 1   
    64    31    53 1   
    65    33    34 1   
    66    33    35 1   
    67    33    82 1   
    68    34    83 1   
    69    35    36 1   
    70    35    84 1   
    71    35    85 1   
    72    36    37 1   
    73    36    86 1   
    74    36    87 1   
    75    37    38 1   
    76    37    88 1   
    77    37    89 1   
    78    38    39 1   
    79    38    90 1   
    80    39    40 2   
    81    39    41 1   
    82    41    42 ar  
    83    41    46 ar  
    84    42    43 ar  
    85    43    44 ar  
    86    43    91 1   
    87    44    45 ar  
    88    44    92 1   
    89    45    46 ar  
    90    46    93 1   
    91    47    48 1   
    92    47    94 1   
    93    48    49 1   
    94    48    51 1   
    95    48    95 1   
    96    49    50 2   
    97    49    54 1   
    98    51    52 1   
    99    51    96 1   
   100    51    97 1   
   101    52    53 1   
   102    52    98 1   
   103    52    99 1   
   104    53   100 1   
   105    54   101 1   
   106    54   102 1   
@<TRIPOS>SUBSTRUCTURE
     1 08X         1 TEMP              0 ****  ****    0 ROOT
