@<TRIPOS>MOLECULE
08Y
   83    89     1     0     0
SMALL
abcg2


@<TRIPOS>ATOM
      1 O5          22.5580    14.9510   -11.4780 o          1 08Y      -0.563100
      2 C15         21.9920    14.4920   -12.4610 c          1 08Y       0.606100
      3 C16         22.5720    13.3610   -13.3000 c6         1 08Y      -0.102500
      4 C18         23.2810    13.9450   -14.5250 c6         1 08Y       0.171800
      5 N4          23.9710    12.8860   -15.2490 n3         1 08Y      -0.725600
      6 C27         24.4020    13.3710   -16.5570 c3         1 08Y       0.152100
      7 C22         23.5390    12.5440   -12.5060 c2         1 08Y      -0.175200
      8 C21         24.6900    12.0940   -13.0110 ce         1 08Y      -0.051400
      9 C24         25.6840    11.3740   -12.1940 ca         1 08Y       0.005200
     10 C30         25.8520    11.4220   -10.8120 ca         1 08Y      -0.120000
     11 C32         26.8790    10.6870   -10.1900 ca         1 08Y      -0.085000
     12 C31         27.7790     9.8930   -10.8990 ca         1 08Y      -0.125000
     13 C28         27.6190     9.8450   -12.2830 ca         1 08Y      -0.023200
     14 C26         26.5860    10.5760   -12.8990 ca         1 08Y      -0.113800
     15 C25         26.6180    10.3620   -14.3020 cc         1 08Y      -0.092400
     16 C23         25.5900    11.0180   -15.1590 c6         1 08Y       0.006800
     17 C17         25.0780    12.3160   -14.4760 c6         1 08Y       0.221700
     18 C29         27.6730     9.5170   -14.5050 cd         1 08Y      -0.020400
     19 N5          28.2830     9.1930   -13.3010 na         1 08Y      -0.225700
     20 BR          28.3230     8.7940   -16.1140 br         1 08Y      -0.040700
     21 N3          20.8040    14.9770   -12.9100 ns         1 08Y      -0.496900
     22 C5          20.1180    16.0900   -12.3350 c5         1 08Y       0.276400
     23 O1          20.8400    17.3150   -12.6000 os         1 08Y      -0.456000
     24 C11         18.6910    16.2100   -12.9280 c3         1 08Y      -0.068700
     25 C14         17.8490    14.9470   -12.7380 c3         1 08Y      -0.090600
     26 C13         18.7380    16.6250   -14.4010 c3         1 08Y      -0.090600
     27 C8          20.0820    16.0380   -10.7940 c          1 08Y       0.565000
     28 O3          19.6200    15.1320   -10.1220 o          1 08Y      -0.518000
     29 N1          20.5810    17.2070   -10.3570 n          1 08Y      -0.448800
     30 C3          20.5410    17.6900    -8.9830 c6         1 08Y       0.057700
     31 C10         21.8620    17.4420    -8.2320 c3         1 08Y      -0.072400
     32 C12         22.2200    15.9660    -8.0260 c3         1 08Y      -0.063700
     33 C20         21.2880    15.2890    -7.0210 c3         1 08Y      -0.085100
     34 C19         23.6770    15.8500    -7.5730 c3         1 08Y      -0.085100
     35 C9          20.1890    19.1810    -8.9110 c          1 08Y       0.550000
     36 O4          20.0810    19.7230    -7.8100 o          1 08Y      -0.554000
     37 N2          20.0590    19.8620   -10.0620 n          1 08Y      -0.430800
     38 C6          19.8340    21.3160   -10.0930 c5         1 08Y       0.100000
     39 C7          19.6480    21.6220   -11.5840 c5         1 08Y      -0.096400
     40 C4          20.3920    20.4870   -12.2990 c5         1 08Y      -0.079400
     41 C1          20.0720    19.2890   -11.4160 c5         1 08Y       0.064700
     42 C2          21.0050    18.0780   -11.4410 c5         1 08Y       0.568400
     43 O2          22.3570    18.4140   -11.3620 oh         1 08Y      -0.627000
     44 H1          21.7410    12.7380   -13.6500 hc         1 08Y       0.078700
     45 H2          23.9770    14.7360   -14.1990 h1         1 08Y       0.044200
     46 H3          22.5530    14.4020   -15.1960 h1         1 08Y       0.044200
     47 H5          24.7880    12.5570   -17.1670 h1         1 08Y       0.034367
     48 H6          23.5460    13.8010   -17.0760 h1         1 08Y       0.034367
     49 H7          25.1840    14.1440   -16.4780 h1         1 08Y       0.034367
     50 H8          23.2900    12.3450   -11.4710 ha         1 08Y       0.194000
     51 H9          25.2070    12.0420   -10.2030 ha         1 08Y       0.122000
     52 H10         26.9820    10.7530    -9.1140 ha         1 08Y       0.113000
     53 H11         28.5640     9.3470   -10.3920 ha         1 08Y       0.117000
     54 H12         24.7300    10.3560   -15.3110 hc         1 08Y       0.061700
     55 H13         25.9960    11.2500   -16.1420 hc         1 08Y       0.061700
     56 H14         25.9280    13.0250   -14.4650 h1         1 08Y       0.040700
     57 H15         29.0850     8.5910   -13.2050 hn         1 08Y       0.362000
     58 H16         20.4070    14.5580   -13.7360 hn         1 08Y       0.327500
     59 H17         18.2160    17.0200   -12.3690 hc         1 08Y       0.056700
     60 H18         17.8030    14.6450   -11.6930 hc         1 08Y       0.044867
     61 H19         16.8340    15.1410   -13.0880 hc         1 08Y       0.044867
     62 H20         18.2430    14.1110   -13.3190 hc         1 08Y       0.044867
     63 H21         19.3090    17.5410   -14.5390 hc         1 08Y       0.044867
     64 H22         19.1800    15.8450   -15.0270 hc         1 08Y       0.044867
     65 H23         17.7210    16.7930   -14.7580 hc         1 08Y       0.044867
     66 H24         19.7290    17.1560    -8.4870 h1         1 08Y       0.100700
     67 H25         22.6630    17.9360    -8.7840 hc         1 08Y       0.056700
     68 H26         21.7860    17.9360    -7.2610 hc         1 08Y       0.056700
     69 H27         22.1280    15.4530    -8.9860 hc         1 08Y       0.077700
     70 H28         21.5490    14.2350    -6.9020 hc         1 08Y       0.032200
     71 H29         21.3690    15.7680    -6.0400 hc         1 08Y       0.032200
     72 H30         20.2450    15.3370    -7.3370 hc         1 08Y       0.032200
     73 H31         23.9580    14.8040    -7.4310 hc         1 08Y       0.032200
     74 H32         24.3550    16.2860    -8.3110 hc         1 08Y       0.032200
     75 H33         23.8320    16.3710    -6.6240 hc         1 08Y       0.032200
     76 H34         20.7050    21.8220    -9.6720 h1         1 08Y       0.061200
     77 H35         18.9640    21.5800    -9.4920 h1         1 08Y       0.061200
     78 H36         20.0300    22.6070   -11.8460 hc         1 08Y       0.058200
     79 H37         18.5880    21.5890   -11.8410 hc         1 08Y       0.058200
     80 H38         20.0600    20.3320   -13.3240 hc         1 08Y       0.065700
     81 H39         21.4660    20.6810   -12.3090 hc         1 08Y       0.065700
     82 H40         19.0760    18.9120   -11.6600 h1         1 08Y       0.064700
     83 H41         22.4710    19.2520   -10.8930 ho         1 08Y       0.468000
@<TRIPOS>BOND
     1     1     2 2   
     2     2     3 1   
     3     2    21 1   
     4     3     4 1   
     5     3     7 1   
     6     3    44 1   
     7     4     5 1   
     8     4    45 1   
     9     4    46 1   
    10     5     6 1   
    11     5    17 1   
    12     6    47 1   
    13     6    48 1   
    14     6    49 1   
    15     7     8 2   
    16     7    50 1   
    17     8     9 1   
    18     8    17 1   
    19     9    10 ar  
    20     9    14 ar  
    21    10    11 ar  
    22    10    51 1   
    23    11    12 ar  
    24    11    52 1   
    25    12    13 ar  
    26    12    53 1   
    27    13    14 ar  
    28    13    19 1   
    29    14    15 1   
    30    15    16 1   
    31    15    18 2   
    32    16    17 1   
    33    16    54 1   
    34    16    55 1   
    35    17    56 1   
    36    18    19 1   
    37    18    20 1   
    38    19    57 1   
    39    21    22 1   
    40    21    58 1   
    41    22    23 1   
    42    22    24 1   
    43    22    27 1   
    44    23    42 1   
    45    24    25 1   
    46    24    26 1   
    47    24    59 1   
    48    25    60 1   
    49    25    61 1   
    50    25    62 1   
    51    26    63 1   
    52    26    64 1   
    53    26    65 1   
    54    27    28 2   
    55    27    29 1   
    56    29    30 1   
    57    29    42 1   
    58    30    31 1   
    59    30    35 1   
    60    30    66 1   
    61    31    32 1   
    62    31    67 1   
    63    31    68 1   
    64    32    33 1   
    65    32    34 1   
    66    32    69 1   
    67    33    70 1   
    68    33    71 1   
    69    33    72 1   
    70    34    73 1   
    71    34    74 1   
    72    34    75 1   
    73    35    36 2   
    74    35    37 1   
    75    37    38 1   
    76    37    41 1   
    77    38    39 1   
    78    38    76 1   
    79    38    77 1   
    80    39    40 1   
    81    39    78 1   
    82    39    79 1   
    83    40    41 1   
    84    40    80 1   
    85    40    81 1   
    86    41    42 1   
    87    41    82 1   
    88    42    43 1   
    89    43    83 1   
@<TRIPOS>SUBSTRUCTURE
     1 08Y         1 TEMP              0 ****  ****    0 ROOT
