@<TRIPOS>MOLECULE
08Y
   83    89     1     0     0
SMALL
No Charge or Current Charge


@<TRIPOS>ATOM
      1 O5          22.7900    15.2650   -11.6540 o          1 08Y      -0.563100
      2 C15         22.1900    14.7060   -12.5610 c          1 08Y       0.606100
      3 C16         22.8090    13.5170   -13.3160 c6         1 08Y      -0.102500
      4 C18         23.4430    14.0070   -14.6330 c6         1 08Y       0.171800
      5 N4          24.0680    12.8760   -15.3670 n3         1 08Y      -0.725600
      6 C27         24.4500    13.2690   -16.7460 c3         1 08Y       0.152100
      7 C22         23.7820    12.6780   -12.4950 c2         1 08Y      -0.175200
      8 C21         24.8740    12.1000   -13.0460 ce         1 08Y      -0.051400
      9 C24         25.8340    11.2800   -12.2340 ca         1 08Y       0.005200
     10 C30         26.0060    11.3260   -10.8310 ca         1 08Y      -0.120000
     11 C32         26.9770    10.4950   -10.2080 ca         1 08Y      -0.085000
     12 C31         27.7840     9.6190   -10.9780 ca         1 08Y      -0.125000
     13 C28         27.5860     9.6030   -12.3650 ca         1 08Y      -0.023200
     14 C26         26.6480    10.4030   -12.9270 ca         1 08Y      -0.113800
     15 C25         26.6300    10.2130   -14.3160 cc         1 08Y      -0.092400
     16 C23         25.6790    10.9110   -15.2450 c6         1 08Y       0.006800
     17 C17         25.1920    12.2560   -14.5800 c6         1 08Y       0.221700
     18 C29         27.6080     9.2600   -14.5770 cd         1 08Y      -0.020400
     19 N5          28.2210     8.8660   -13.3560 na         1 08Y      -0.225700
     20 Br          28.0780     8.5420   -16.2570 br         1 08Y      -0.040700
     21 N3          20.8960    15.0200   -12.9420 ns         1 08Y      -0.496900
     22 C5          20.1840    16.1610   -12.3370 c5         1 08Y       0.276400
     23 O1          20.8930    17.3860   -12.6400 os         1 08Y      -0.456000
     24 C11         18.7130    16.2670   -12.8820 c3         1 08Y      -0.068700
     25 C14         17.9090    14.9410   -12.7910 c3         1 08Y      -0.090600
     26 C13         18.6300    16.8310   -14.3250 c3         1 08Y      -0.090600
     27 C8          20.1870    16.0290   -10.7690 c          1 08Y       0.565000
     28 O3          19.8120    15.1120   -10.0470 o          1 08Y      -0.518000
     29 N1          20.6390    17.2660   -10.3270 n          1 08Y      -0.448800
     30 C3          20.5040    17.7680    -8.9180 c6         1 08Y       0.057700
     31 C10         21.8000    17.5270    -8.0720 c3         1 08Y      -0.072400
     32 C12         22.2080    16.0470    -7.8270 c3         1 08Y      -0.063700
     33 C20         21.1910    15.2940    -6.9350 c3         1 08Y      -0.085100
     34 C19         23.6280    15.9540    -7.2240 c3         1 08Y      -0.085100
     35 C9          20.1250    19.2870    -8.8420 c          1 08Y       0.550000
     36 O4          19.9710    19.8730    -7.7780 o          1 08Y      -0.554000
     37 N2          20.0370    19.9760   -10.0710 n          1 08Y      -0.430800
     38 C6          19.7800    21.4270   -10.1860 c5         1 08Y       0.100000
     39 C7          19.3640    21.5660   -11.6830 c5         1 08Y      -0.096400
     40 C4          20.1500    20.4140   -12.3680 c5         1 08Y      -0.079400
     41 C1          19.8750    19.2630   -11.3580 c5         1 08Y       0.064700
     42 C2          21.0040    18.1520   -11.4260 c5         1 08Y       0.568400
     43 O2          22.3180    18.6350   -11.2810 oh         1 08Y      -0.627000
     44 H1          21.9740    12.8840   -13.6450 hc         1 08Y       0.078700
     45 H2          24.1950    14.7790   -14.4120 h1         1 08Y       0.044200
     46 H3          22.6630    14.4810   -15.2470 h1         1 08Y       0.044200
     47 H5          24.7500    12.3990   -17.3430 h1         1 08Y       0.034367
     48 H6          23.6030    13.7390   -17.2630 h1         1 08Y       0.034367
     49 H7          25.2820    13.9860   -16.7330 h1         1 08Y       0.034367
     50 H8          23.5490    12.5630   -11.4360 ha         1 08Y       0.194000
     51 H9          25.4110    12.0010   -10.2210 ha         1 08Y       0.122000
     52 H10         27.1080    10.5360    -9.1290 ha         1 08Y       0.113000
     53 H11         28.5320     8.9840   -10.5080 ha         1 08Y       0.117000
     54 H12         24.8140    10.2680   -15.4500 hc         1 08Y       0.061700
     55 H13         26.1670    11.1110   -16.2070 hc         1 08Y       0.061700
     56 H14         26.0500    12.9440   -14.6210 h1         1 08Y       0.040700
     57 H15         28.9620     8.1840   -13.2370 hn         1 08Y       0.362000
     58 H16         20.4960    14.4680   -13.6890 hn         1 08Y       0.327500
     59 H17         18.1710    16.9750   -12.2460 hc         1 08Y       0.056700
     60 H18         17.8940    14.5510   -11.7680 hc         1 08Y       0.044867
     61 H19         16.8670    15.1030   -13.0940 hc         1 08Y       0.044867
     62 H20         18.3310    14.1700   -13.4470 hc         1 08Y       0.044867
     63 H21         19.0530    17.8410   -14.3830 hc         1 08Y       0.044867
     64 H22         19.1750    16.1910   -15.0290 hc         1 08Y       0.044867
     65 H23         17.5870    16.8930   -14.6580 hc         1 08Y       0.044867
     66 H24         19.6630    17.2500    -8.4360 h1         1 08Y       0.100700
     67 H25         22.6370    18.0420    -8.5580 hc         1 08Y       0.056700
     68 H26         21.6940    18.0040    -7.0900 hc         1 08Y       0.056700
     69 H27         22.2450    15.5390    -8.7980 hc         1 08Y       0.077700
     70 H28         21.4950    14.2480    -6.8050 hc         1 08Y       0.032200
     71 H29         21.1260    15.7560    -5.9430 hc         1 08Y       0.032200
     72 H30         20.1900    15.2950    -7.3770 hc         1 08Y       0.032200
     73 H31         23.9260    14.9070    -7.0910 hc         1 08Y       0.032200
     74 H32         24.3630    16.4300    -7.8850 hc         1 08Y       0.032200
     75 H33         23.6730    16.4510    -6.2470 hc         1 08Y       0.032200
     76 H34         20.6940    21.9960    -9.9680 h1         1 08Y       0.061200
     77 H35         18.9880    21.7690    -9.5060 h1         1 08Y       0.061200
     78 H36         19.6090    22.5520   -12.0940 hc         1 08Y       0.058200
     79 H37         18.2830    21.4260   -11.8000 hc         1 08Y       0.058200
     80 H38         19.7790    20.1860   -13.3740 hc         1 08Y       0.065700
     81 H39         21.2120    20.6680   -12.4590 hc         1 08Y       0.065700
     82 H40         18.8600    18.8600   -11.4550 h1         1 08Y       0.064700
     83 H41         22.2350    19.3680   -10.6420 ho         1 08Y       0.468000
@<TRIPOS>BOND
     1     1     2 2   
     2     2     3 1   
     3     2    21 1   
     4     3     4 1   
     5     3     7 1   
     6     3    44 1   
     7     4     5 1   
     8     4    45 1   
     9     4    46 1   
    10     5     6 1   
    11     5    17 1   
    12     6    47 1   
    13     6    48 1   
    14     6    49 1   
    15     7     8 2   
    16     7    50 1   
    17     8     9 1   
    18     8    17 1   
    19     9    10 ar  
    20     9    14 ar  
    21    10    11 ar  
    22    10    51 1   
    23    11    12 ar  
    24    11    52 1   
    25    12    13 ar  
    26    12    53 1   
    27    13    14 ar  
    28    13    19 1   
    29    14    15 1   
    30    15    16 1   
    31    15    18 2   
    32    16    17 1   
    33    16    54 1   
    34    16    55 1   
    35    17    56 1   
    36    18    19 1   
    37    18    20 1   
    38    19    57 1   
    39    21    22 1   
    40    21    58 1   
    41    22    23 1   
    42    22    24 1   
    43    22    27 1   
    44    23    42 1   
    45    24    25 1   
    46    24    26 1   
    47    24    59 1   
    48    25    60 1   
    49    25    61 1   
    50    25    62 1   
    51    26    63 1   
    52    26    64 1   
    53    26    65 1   
    54    27    28 2   
    55    27    29 1   
    56    29    30 1   
    57    29    42 1   
    58    30    31 1   
    59    30    35 1   
    60    30    66 1   
    61    31    32 1   
    62    31    67 1   
    63    31    68 1   
    64    32    33 1   
    65    32    34 1   
    66    32    69 1   
    67    33    70 1   
    68    33    71 1   
    69    33    72 1   
    70    34    73 1   
    71    34    74 1   
    72    34    75 1   
    73    35    36 2   
    74    35    37 1   
    75    37    38 1   
    76    37    41 1   
    77    38    39 1   
    78    38    76 1   
    79    38    77 1   
    80    39    40 1   
    81    39    78 1   
    82    39    79 1   
    83    40    41 1   
    84    40    80 1   
    85    40    81 1   
    86    41    42 1   
    87    41    82 1   
    88    42    43 1   
    89    43    83 1   
@<TRIPOS>SUBSTRUCTURE
     1 08Y         1 TEMP              0 ****  ****    0 ROOT
