@<TRIPOS>MOLECULE
08Z
   37    39     1     0     0
SMALL
No Charge or Current Charge


@<TRIPOS>ATOM
      1 C1           2.5390     0.5610    -0.4820 ca         1 08Z       0.319000
      2 N2           1.2070     0.7140    -0.8600 nu         1 08Z      -0.915900
      3 C3           0.0790    -0.0050    -0.6070 cc         1 08Z       0.768300
      4 N4           0.1410    -1.0800     0.1410 nd         1 08Z      -0.801000
      5 C5          -1.1080    -1.5800     0.2660 cd         1 08Z       0.695900
      6 C6          -2.1160    -0.9610    -0.4010 cc         1 08Z      -0.469600
      7 S7          -1.5010     0.4740    -1.1830 ss         1 08Z      -0.075400
      8 N8          -1.1800    -2.6400     1.0430 nv         1 08Z      -1.046900
      9 C9          -3.5320    -1.3060    -0.2170 c          1 08Z       0.651300
     10 C10         -4.5110    -0.1870    -0.0270 ca         1 08Z      -0.205600
     11 C11         -4.1700     1.0550     0.5520 ca         1 08Z      -0.049000
     12 C12         -5.1790     2.0200     0.6970 ca         1 08Z      -0.173000
     13 C13         -6.4840     1.7190     0.2770 ca         1 08Z       0.348900
     14 N14         -6.8230     0.5250    -0.2590 nb         1 08Z      -0.670000
     15 C15         -5.8490    -0.4070    -0.3970 ca         1 08Z       0.379900
     16 O16         -3.8860    -2.4680    -0.0690 o          1 08Z      -0.588100
     17 C17          3.2880     1.6980    -0.1480 ca         1 08Z      -0.159000
     18 C18          4.6400     1.5820     0.2170 ca         1 08Z      -0.042000
     19 C19          5.2740     0.3190     0.2450 ca         1 08Z      -0.177600
     20 C20          4.5170    -0.8230    -0.1090 ca         1 08Z      -0.042000
     21 C21          3.1640    -0.6960    -0.4720 ca         1 08Z      -0.159000
     22 C22          6.7310     0.2250     0.6420 c          1 08Z       0.621700
     23 O23          7.3960     1.2030     0.9430 o          1 08Z      -0.608100
     24 N24          7.3150    -0.9920     0.6620 nt         1 08Z      -0.604000
     25 HN2          0.9720     1.6340    -1.2180 hn         1 08Z       0.510000
     26 HN8         -0.2960    -3.1090     1.1840 hn         1 08Z       0.518500
     27 HN8A        -1.9860    -3.2370     0.8920 hn         1 08Z       0.518500
     28 H11         -3.1630     1.2650     0.9060 ha         1 08Z       0.126000
     29 H12         -4.9600     2.9890     1.1370 ha         1 08Z       0.125000
     30 H13         -7.2840     2.4510     0.3800 h4         1 08Z       0.019100
     31 H15         -6.1590    -1.3560    -0.8340 h4         1 08Z       0.032100
     32 H17          2.8220     2.6790    -0.1620 ha         1 08Z       0.135000
     33 H18          5.1950     2.4810     0.4790 ha         1 08Z       0.126000
     34 H20          4.9600    -1.8160    -0.1110 ha         1 08Z       0.126000
     35 H21          2.6050    -1.5830    -0.7540 ha         1 08Z       0.135000
     36 HN24         6.7870    -1.8150     0.4180 hn         1 08Z       0.314500
     37 HN2A         8.2860    -1.0650     0.9250 hn         1 08Z       0.314500
@<TRIPOS>BOND
     1     1     2 1   
     2     1    17 ar  
     3     1    21 ar  
     4     2     3 1   
     5     2    25 1   
     6     3     4 2   
     7     3     7 1   
     8     4     5 1   
     9     5     6 2   
    10     5     8 1   
    11     6     7 1   
    12     6     9 1   
    13     8    26 1   
    14     8    27 1   
    15     9    10 1   
    16     9    16 2   
    17    10    11 ar  
    18    10    15 ar  
    19    11    12 ar  
    20    11    28 1   
    21    12    13 ar  
    22    12    29 1   
    23    13    14 ar  
    24    13    30 1   
    25    14    15 ar  
    26    15    31 1   
    27    17    18 ar  
    28    17    32 1   
    29    18    19 ar  
    30    18    33 1   
    31    19    20 ar  
    32    19    22 1   
    33    20    21 ar  
    34    20    34 1   
    35    21    35 1   
    36    22    23 2   
    37    22    24 1   
    38    24    36 1   
    39    24    37 1   
@<TRIPOS>SUBSTRUCTURE
     1 08Z         1 TEMP              0 ****  ****    0 ROOT
