@<TRIPOS>MOLECULE
08Z
   37    39     1     0     0
SMALL
bcc


@<TRIPOS>ATOM
      1 C1           2.5390     0.6360    -0.1430 ca         1 08Z       0.180600
      2 N2           1.1760     0.9090    -0.2300 nu         1 08Z      -0.722300
      3 C3           0.1250     0.0820    -0.0870 cc         1 08Z       0.768300
      4 N4           0.1990    -1.1970     0.1410 nd         1 08Z      -0.801000
      5 C5          -1.0360    -1.7510     0.2350 cd         1 08Z       0.761200
      6 C6          -2.1150    -0.8660     0.0930 cc         1 08Z      -0.390000
      7 S7          -1.4770     0.7430    -0.2080 ss         1 08Z      -0.220300
      8 N8          -1.1350    -3.0590     0.4470 nv         1 08Z      -0.936500
      9 C9          -3.4910    -1.2140     0.1290 c          1 08Z       0.651300
     10 C10         -4.5060    -0.1210     0.0480 ca         1 08Z      -0.270900
     11 C11         -4.4620     1.0050     0.8620 ca         1 08Z      -0.067000
     12 C12         -5.4760     1.9440     0.7590 ca         1 08Z      -0.256300
     13 C13         -6.4900     1.7250    -0.1590 ca         1 08Z       0.414200
     14 N14         -6.5480     0.6500    -0.9390 nb         1 08Z      -0.670000
     15 C15         -5.5850    -0.2520    -0.8250 ca         1 08Z       0.445200
     16 O16         -3.8780    -2.3830     0.2100 o          1 08Z      -0.588100
     17 C17          3.4030     1.7260    -0.2870 ca         1 08Z      -0.177000
     18 C18          4.7690     1.5540    -0.2180 ca         1 08Z      -0.060000
     19 C19          5.3220     0.2940     0.0120 ca         1 08Z      -0.177600
     20 C20          4.4550    -0.7860     0.1440 ca         1 08Z      -0.060000
     21 C21          3.0800    -0.6320     0.0680 ca         1 08Z      -0.177000
     22 C22          6.8090     0.1710     0.0670 c          1 08Z       0.688700
     23 O23          7.5300     1.0670    -0.3560 o          1 08Z      -0.608100
     24 N24          7.3030    -0.9590     0.5960 nt         1 08Z      -0.671000
     25 HN2          0.9550     1.8780    -0.4090 hn         1 08Z       0.454800
     26 HN8         -0.3070    -3.6070     0.6020 hn         1 08Z       0.463300
     27 HN8A        -2.0410    -3.4880     0.5370 hn         1 08Z       0.463300
     28 H11         -3.6690     1.1400     1.5870 ha         1 08Z       0.144000
     29 H12         -5.4840     2.8270     1.3830 ha         1 08Z       0.143000
     30 H13         -7.2940     2.4450    -0.2670 h4         1 08Z       0.019100
     31 H15         -5.6570    -1.1230    -1.4670 h4         1 08Z       0.032100
     32 H17          2.9990     2.7170    -0.4570 ha         1 08Z       0.153000
     33 H18          5.4140     2.4130    -0.3370 ha         1 08Z       0.144000
     34 H20          4.8300    -1.7910     0.2910 ha         1 08Z       0.144000
     35 H21          2.4410    -1.4940     0.1670 ha         1 08Z       0.153000
     36 HN24         6.7320    -1.6490     1.0510 hn         1 08Z       0.314500
     37 HN2A         8.3000    -1.0830     0.6550 hn         1 08Z       0.314500
@<TRIPOS>BOND
     1     1     2 1   
     2     1    17 ar  
     3     1    21 ar  
     4     2     3 1   
     5     2    25 1   
     6     3     4 2   
     7     3     7 1   
     8     4     5 1   
     9     5     6 2   
    10     5     8 1   
    11     6     7 1   
    12     6     9 1   
    13     8    26 1   
    14     8    27 1   
    15     9    10 1   
    16     9    16 2   
    17    10    11 ar  
    18    10    15 ar  
    19    11    12 ar  
    20    11    28 1   
    21    12    13 ar  
    22    12    29 1   
    23    13    14 ar  
    24    13    30 1   
    25    14    15 ar  
    26    15    31 1   
    27    17    18 ar  
    28    17    32 1   
    29    18    19 ar  
    30    18    33 1   
    31    19    20 ar  
    32    19    22 1   
    33    20    21 ar  
    34    20    34 1   
    35    21    35 1   
    36    22    23 2   
    37    22    24 1   
    38    24    36 1   
    39    24    37 1   
@<TRIPOS>SUBSTRUCTURE
     1 08Z         1 TEMP              0 ****  ****    0 ROOT
