@<TRIPOS>MOLECULE
091
   26    28     1     0     0
SMALL
No Charge or Current Charge


@<TRIPOS>ATOM
      1 C1          -0.8480    -0.0680     0.0100 c5         1 091      -0.133700
      2 C2           0.6340     0.3140    -0.0100 ca         1 091      -0.130300
      3 C3          -0.8310    -1.6370     0.0160 c          1 091       0.568000
      4 C4          -1.5600     0.5600     1.2510 c5         1 091      -0.090400
      5 C5          -1.5720     0.5150    -1.2390 c5         1 091       0.165800
      6 C6           1.3930    -0.8380    -0.0140 ca         1 091      -0.028000
      7 C7           1.2520     1.5750    -0.0200 ca         1 091      -0.056000
      8 N1           0.5200    -1.9220     0.0020 ns         1 091      -0.145000
      9 O1          -1.7510    -2.4470     0.0300 o          1 091      -0.533000
     10 C8          -2.3660     1.7080     0.5960 c5         1 091       0.138800
     11 N2          -2.8120     1.1060    -0.6800 n7         1 091      -0.826400
     12 C9           2.7910    -0.8200    -0.0290 ca         1 091      -0.145000
     13 C10          2.6630     1.6280    -0.0360 ca         1 091      -0.141000
     14 C11          3.4300     0.4380    -0.0400 ca         1 091      -0.075000
     15 H1          -2.2360    -0.1570     1.7320 hc         1 091       0.061200
     16 H2          -0.8680     0.9180     2.0220 hc         1 091       0.061200
     17 H3          -0.9650     1.2970    -1.7190 h1         1 091       0.064200
     18 H4          -1.7870    -0.2480    -2.0020 h1         1 091       0.064200
     19 H5           0.6630     2.4890    -0.0150 ha         1 091       0.120000
     20 H6           0.8600    -2.8750     0.0030 hn         1 091       0.173000
     21 H7          -3.2120     2.0300     1.2200 h1         1 091       0.056700
     22 H8          -1.7300     2.5860     0.4120 h1         1 091       0.056700
     23 H9          -3.4610     0.3400    -0.4590 hn         1 091       0.419000
     24 H11          3.3670    -1.7430    -0.0310 ha         1 091       0.122000
     25 H12          3.1650     2.5920    -0.0440 ha         1 091       0.118000
     26 H13          4.5160     0.4930    -0.0520 ha         1 091       0.115000
@<TRIPOS>BOND
     1     1     2 1   
     2     1     3 1   
     3     1     4 1   
     4     1     5 1   
     5     2     6 ar  
     6     2     7 ar  
     7     3     8 1   
     8     3     9 2   
     9     4    10 1   
    10     4    15 1   
    11     4    16 1   
    12     5    11 1   
    13     5    17 1   
    14     5    18 1   
    15     6     8 1   
    16     6    12 ar  
    17     7    13 ar  
    18     7    19 1   
    19     8    20 1   
    20    10    11 1   
    21    10    21 1   
    22    10    22 1   
    23    11    23 1   
    24    12    14 ar  
    25    12    24 1   
    26    13    14 ar  
    27    13    25 1   
    28    14    26 1   
@<TRIPOS>SUBSTRUCTURE
     1 091         1 TEMP              0 ****  ****    0 ROOT
