@<TRIPOS>MOLECULE
091
   26    28     1     0     0
SMALL
abcg2


@<TRIPOS>ATOM
      1 C1          -0.7530     0.0840     0.0730 c5         1 091      -0.133700
      2 C2           0.7150     0.3670     0.0310 ca         1 091      -0.130300
      3 C3          -0.7880    -1.4420     0.0980 c          1 091       0.568000
      4 C4          -1.5470     0.7020     1.2490 c5         1 091      -0.090400
      5 C5          -1.5300     0.6060    -1.1830 c5         1 091       0.165800
      6 C6           1.4090    -0.8410    -0.0130 ca         1 091      -0.028000
      7 C7           1.4080     1.5600     0.0070 ca         1 091      -0.056000
      8 N1           0.4950    -1.8880     0.0240 ns         1 091      -0.145000
      9 O1          -1.7810    -2.1390     0.1530 o          1 091      -0.533000
     10 C8          -2.6590     1.5260     0.5690 c5         1 091       0.138800
     11 N2          -2.8650     0.9390    -0.7440 n7         1 091      -0.826400
     12 C9           2.7880    -0.8930    -0.0770 ca         1 091      -0.145000
     13 C10          2.8020     1.5320    -0.0570 ca         1 091      -0.141000
     14 C11          3.4770     0.3190    -0.0990 ca         1 091      -0.075000
     15 H1          -1.9810    -0.0790     1.8750 hc         1 091       0.061200
     16 H2          -0.9070     1.3110     1.8870 hc         1 091       0.061200
     17 H3          -1.0270     1.5120    -1.5330 h1         1 091       0.064200
     18 H4          -1.5400    -0.1040    -2.0100 h1         1 091       0.064200
     19 H5           0.8800     2.5060     0.0420 ha         1 091       0.120000
     20 H6           0.7430    -2.8650     0.0030 hn         1 091       0.173000
     21 H7          -3.5860     1.5420     1.1420 h1         1 091       0.056700
     22 H8          -2.3300     2.5610     0.4450 h1         1 091       0.056700
     23 H9          -3.4040     0.0860    -0.6450 hn         1 091       0.419000
     24 H11          3.3200    -1.8350    -0.1090 ha         1 091       0.122000
     25 H12          3.3590     2.4590    -0.0750 ha         1 091       0.118000
     26 H13          4.5570     0.3100    -0.1490 ha         1 091       0.115000
@<TRIPOS>BOND
     1     1     2 1   
     2     1     3 1   
     3     1     4 1   
     4     1     5 1   
     5     2     6 ar  
     6     2     7 ar  
     7     3     8 1   
     8     3     9 2   
     9     4    10 1   
    10     4    15 1   
    11     4    16 1   
    12     5    11 1   
    13     5    17 1   
    14     5    18 1   
    15     6     8 1   
    16     6    12 ar  
    17     7    13 ar  
    18     7    19 1   
    19     8    20 1   
    20    10    11 1   
    21    10    21 1   
    22    10    22 1   
    23    11    23 1   
    24    12    14 ar  
    25    12    24 1   
    26    13    14 ar  
    27    13    25 1   
    28    14    26 1   
@<TRIPOS>SUBSTRUCTURE
     1 091         1 TEMP              0 ****  ****    0 ROOT
