@<TRIPOS>MOLECULE
092
   32    34     1     0     0
SMALL
No Charge or Current Charge


@<TRIPOS>ATOM
      1 C5          -3.3830     2.2790     0.2930 ca         1 092      -0.140000
      2 C8          -4.3160     1.4560    -0.3840 ca         1 092      -0.073000
      3 C3          -2.0850     1.8070     0.5850 ca         1 092      -0.054000
      4 C6          -3.9580     0.1490    -0.7770 ca         1 092      -0.144000
      5 C1          -1.7470     0.5050     0.1840 ca         1 092      -0.132300
      6 C17         -2.6640    -0.2880    -0.4740 ca         1 092      -0.026000
      7 C14         -0.7530    -1.6680    -0.3110 c          1 092       0.563000
      8 C9           3.2340    -0.1340     0.0240 c          1 092       0.587100
      9 C4           0.7590     0.4710    -0.2970 c5         1 092      -0.068400
     10 C13         -0.0700    -0.4130     1.8430 c5         1 092       0.171800
     11 C7           1.9020     0.2670     0.7560 c5         1 092       0.101500
     12 C2          -0.4470    -0.2800     0.3530 c5         1 092      -0.136700
     13 C18          4.9520     0.7600    -1.4190 c3         1 092       0.152900
     14 N16         -2.0570    -1.5140    -0.7380 ns         1 092      -0.144000
     15 N10          1.3680    -0.7380     1.7460 n7         1 092      -0.827400
     16 O15         -0.0490    -2.6620    -0.4430 o          1 092      -0.521000
     17 O11          3.7290     0.9380    -0.6790 os         1 092      -0.447100
     18 H1          -3.6700     3.2850     0.5920 ha         1 092       0.119000
     19 H2          -5.3130     1.8330    -0.6020 ha         1 092       0.116000
     20 H3          -1.3670     2.4380     1.1050 ha         1 092       0.119000
     21 H4          -4.6640    -0.4950    -1.2970 ha         1 092       0.123000
     22 H5           0.5630     1.5390    -0.4450 hc         1 092       0.067200
     23 H6           1.0070     0.0590    -1.2820 hc         1 092       0.067200
     24 H7          -0.2180     0.5340     2.3840 h1         1 092       0.065700
     25 H8          -0.6460    -1.1950     2.3600 h1         1 092       0.065700
     26 H9           2.0990     1.2210     1.2650 h1         1 092       0.089700
     27 H10          4.8390    -0.0250    -2.1790 h1         1 092       0.049367
     28 H11          5.2280     1.6900    -1.9300 h1         1 092       0.049367
     29 H12          5.7770     0.4810    -0.7510 h1         1 092       0.049367
     30 H13         -2.5490    -2.2570    -1.2160 hn         1 092       0.175000
     31 H14          1.4550    -1.6760     1.3280 hn         1 092       0.447000
     32 O12          3.7790    -1.2320     0.0640 o          1 092      -0.466000
@<TRIPOS>BOND
     1     1     2 ar  
     2     1     3 ar  
     3     1    18 1   
     4     2     4 ar  
     5     2    19 1   
     6     3     5 ar  
     7     3    20 1   
     8     4     6 ar  
     9     4    21 1   
    10     5     6 ar  
    11     5    12 1   
    12     6    14 1   
    13     7    12 1   
    14     7    14 1   
    15     7    16 2   
    16     8    11 1   
    17     8    17 1   
    18     8    32 2   
    19     9    11 1   
    20     9    12 1   
    21     9    22 1   
    22     9    23 1   
    23    10    12 1   
    24    10    15 1   
    25    10    24 1   
    26    10    25 1   
    27    11    15 1   
    28    11    26 1   
    29    13    17 1   
    30    13    27 1   
    31    13    28 1   
    32    13    29 1   
    33    14    30 1   
    34    15    31 1   
@<TRIPOS>SUBSTRUCTURE
     1 092         1 TEMP              0 ****  ****    0 ROOT
