@<TRIPOS>MOLECULE
092
   32    34     1     0     0
SMALL
bcc


@<TRIPOS>ATOM
      1 C5          -3.6040     2.1150     0.3790 ca         1 092      -0.158000
      2 C8          -4.3890     1.2470    -0.3700 ca         1 092      -0.091000
      3 C3          -2.2750     1.7980     0.6610 ca         1 092      -0.072000
      4 C6          -3.8750     0.0460    -0.8570 ca         1 092      -0.162000
      5 C1          -1.7550     0.6140     0.1820 ca         1 092      -0.132300
      6 C17         -2.5570    -0.2470    -0.5660 ca         1 092       0.066600
      7 C14         -0.5330    -1.2920    -0.4730 c          1 092       0.705500
      8 C9           3.1390    -0.2030     0.0840 c          1 092       0.636100
      9 C4           0.8030     0.8270    -0.1180 c5         1 092      -0.068400
     10 C13         -0.0090    -0.3390     1.8020 c5         1 092       0.171800
     11 C7           1.9630     0.3840     0.8280 c5         1 092       0.101500
     12 C2          -0.4020    -0.0050     0.3390 c5         1 092      -0.136700
     13 C18          4.7960     0.2880    -1.5170 c3         1 092       0.129700
     14 N16         -1.8120    -1.3630    -0.9280 ns         1 092      -0.470100
     15 N10          1.4190    -0.5530     1.7950 n7         1 092      -0.772200
     16 O15          0.3430    -2.1090    -0.6760 o          1 092      -0.596500
     17 O11          3.6720     0.6910    -0.7320 os         1 092      -0.423900
     18 H1          -4.0260     3.0410     0.7470 ha         1 092       0.137000
     19 H2          -5.4180     1.5030    -0.5820 ha         1 092       0.134000
     20 H3          -1.6640     2.4750     1.2460 ha         1 092       0.137000
     21 H4          -4.4890    -0.6260    -1.4410 ha         1 092       0.141000
     22 H5           0.5940     1.8870     0.0270 hc         1 092       0.067200
     23 H6           1.0240     0.6890    -1.1760 hc         1 092       0.067200
     24 H7          -0.2640     0.5240     2.4240 h1         1 092       0.065700
     25 H8          -0.5370    -1.2030     2.2060 h1         1 092       0.065700
     26 H9           2.3320     1.2780     1.3430 h1         1 092       0.089700
     27 H10          4.5390    -0.5290    -2.1900 h1         1 092       0.049367
     28 H11          5.0790     1.1590    -2.1000 h1         1 092       0.049367
     29 H12          5.6330    -0.0120    -0.8870 h1         1 092       0.049367
     30 H13         -2.1590    -2.1230    -1.4930 hn         1 092       0.341500
     31 H14          1.6160    -1.4980     1.4890 hn         1 092       0.391800
     32 O12          3.5500    -1.3280     0.2130 o          1 092      -0.515000
@<TRIPOS>BOND
     1     1     2 ar  
     2     1     3 ar  
     3     1    18 1   
     4     2     4 ar  
     5     2    19 1   
     6     3     5 ar  
     7     3    20 1   
     8     4     6 ar  
     9     4    21 1   
    10     5     6 ar  
    11     5    12 1   
    12     6    14 1   
    13     7    12 1   
    14     7    14 1   
    15     7    16 2   
    16     8    11 1   
    17     8    17 1   
    18     8    32 2   
    19     9    11 1   
    20     9    12 1   
    21     9    22 1   
    22     9    23 1   
    23    10    12 1   
    24    10    15 1   
    25    10    24 1   
    26    10    25 1   
    27    11    15 1   
    28    11    26 1   
    29    13    17 1   
    30    13    27 1   
    31    13    28 1   
    32    13    29 1   
    33    14    30 1   
    34    15    31 1   
@<TRIPOS>SUBSTRUCTURE
     1 092         1 TEMP              0 ****  ****    0 ROOT
