@<TRIPOS>MOLECULE
094
   52    56     1     0     0
SMALL
abcg2


@<TRIPOS>ATOM
      1 F1          -2.9190    -0.3720    -6.8120 f          1 094      -0.170000
      2 C1          -1.9270    -0.3830    -5.9160 ca         1 094       0.222000
      3 C2          -1.1790    -1.5320    -5.7540 ca         1 094      -0.187000
      4 C3          -0.1600    -1.5230    -4.8140 ca         1 094      -0.010000
      5 C4           0.1160    -0.3900    -4.0590 ca         1 094      -0.197000
      6 S1           1.4760    -0.3740    -2.9430 ss         1 094      -0.104300
      7 C5           0.6300    -0.2800    -1.3770 ca         1 094       0.440300
      8 C6           1.3880    -0.1160    -0.2120 ca         1 094      -0.044800
      9 C7           0.6850     0.0080     0.9790 ca         1 094      -0.102000
     10 C8          -0.7010    -0.0530     0.9810 ca         1 094      -0.040000
     11 N1          -1.4600     0.0550     2.1500 n          1 094      -0.050000
     12 C9          -2.8310     0.2760     2.1310 c          1 094       0.628000
     13 O1          -3.4320     0.5200     3.1630 o          1 094      -0.562000
     14 N2          -3.4070     0.2360     0.9150 ns         1 094      -0.502900
     15 C10         -2.8330    -0.3720    -0.2660 c6         1 094       0.065700
     16 C11         -1.3440    -0.2430    -0.2350 ca         1 094       0.308300
     17 N3          -0.6840    -0.3450    -1.3730 nb         1 094      -0.655000
     18 C12         -0.8160     0.1110     3.4000 ca         1 094      -0.037000
     19 C13         -0.5600    -1.0540     4.1150 ca         1 094       0.135500
     20 CL1         -1.0770    -2.5600     3.4590 cl         1 094      -0.170500
     21 C14          0.1000    -1.0210     5.3330 ca         1 094      -0.103000
     22 C15          0.5100     0.2010     5.8430 ca         1 094      -0.086000
     23 C16          0.2720     1.3790     5.1520 ca         1 094      -0.103000
     24 C17         -0.3880     1.3230     3.9360 ca         1 094       0.135500
     25 CL2         -0.6750     2.7690     3.0450 cl         1 094      -0.170500
     26 C18          2.8640    -0.0500    -0.2240 ce         1 094      -0.065400
     27 C19          3.5950    -1.0650    -0.6860 c2         1 094      -0.196200
     28 C20          5.0870    -1.0280    -0.7610 c6         1 094       0.192000
     29 N4           5.5910     0.3130    -0.5540 n7         1 094      -0.858400
     30 C21          4.9890     0.9350     0.6110 c6         1 094       0.160800
     31 C22          3.5160     1.1880     0.3320 c6         1 094      -0.031200
     32 C23         -0.6630     0.7400    -4.2690 ca         1 094       0.257000
     33 F2          -0.4110     1.8400    -3.5610 f          1 094      -0.154000
     34 C24         -1.6940     0.7680    -5.1850 ca         1 094      -0.217000
     35 H2          -1.3890    -2.4160    -6.3410 ha         1 094       0.138000
     36 H3           0.4330    -2.4150    -4.6620 ha         1 094       0.130000
     37 H7           1.2380     0.1370     1.9010 ha         1 094       0.133000
     38 HN2         -4.4090     0.3520     0.9190 hn         1 094       0.334500
     39 H101        -3.2270     0.1290    -1.1490 h1         1 094       0.063200
     40 H102        -3.1110    -1.4300    -0.3430 h1         1 094       0.063200
     41 H14          0.2880    -1.9360     5.8760 ha         1 094       0.136500
     42 H15          1.0260     0.2360     6.7920 ha         1 094       0.125000
     43 H16          0.5970     2.3280     5.5560 ha         1 094       0.136500
     44 H19          3.1180    -1.9770    -1.0250 ha         1 094       0.184000
     45 H201         5.4840    -1.7620    -0.0390 h1         1 094       0.041200
     46 H202         5.3990    -1.3840    -1.7480 h1         1 094       0.041200
     47 HN4          6.5960     0.2820    -0.4500 hn         1 094       0.414000
     48 H211         5.0770     0.3160     1.5170 h1         1 094       0.031700
     49 H212         5.4980     1.8770     0.8160 h1         1 094       0.031700
     50 H221         3.3940     2.0160    -0.3740 hc         1 094       0.058700
     51 H222         3.0140     1.4960     1.2530 hc         1 094       0.058700
     52 H24         -2.2910     1.6600    -5.3290 ha         1 094       0.151000
@<TRIPOS>BOND
     1     1     2 1   
     2     2     3 ar  
     3     2    34 ar  
     4     3     4 ar  
     5     3    35 1   
     6     4     5 ar  
     7     4    36 1   
     8     5     6 1   
     9     5    32 ar  
    10     6     7 1   
    11     7     8 ar  
    12     7    17 ar  
    13     8     9 ar  
    14     8    26 1   
    15     9    10 ar  
    16     9    37 1   
    17    10    11 1   
    18    10    16 ar  
    19    11    12 1   
    20    11    18 1   
    21    12    13 2   
    22    12    14 1   
    23    14    15 1   
    24    14    38 1   
    25    15    16 1   
    26    15    39 1   
    27    15    40 1   
    28    16    17 ar  
    29    18    19 ar  
    30    18    24 ar  
    31    19    20 1   
    32    19    21 ar  
    33    21    22 ar  
    34    21    41 1   
    35    22    23 ar  
    36    22    42 1   
    37    23    24 ar  
    38    23    43 1   
    39    24    25 1   
    40    26    27 2   
    41    26    31 1   
    42    27    28 1   
    43    27    44 1   
    44    28    29 1   
    45    28    45 1   
    46    28    46 1   
    47    29    30 1   
    48    29    47 1   
    49    30    31 1   
    50    30    48 1   
    51    30    49 1   
    52    31    50 1   
    53    31    51 1   
    54    32    33 1   
    55    32    34 ar  
    56    34    52 1   
@<TRIPOS>SUBSTRUCTURE
     1 094         1 TEMP              0 ****  ****    0 ROOT
