@<TRIPOS>MOLECULE
094
   52    56     1     0     0
SMALL
No Charge or Current Charge


@<TRIPOS>ATOM
      1 F1          -2.2530     1.7090    -6.5220 f          1 094      -0.170000
      2 C1          -1.4390     1.0110    -5.7020 ca         1 094       0.222000
      3 C2          -1.1990    -0.3490    -5.9510 ca         1 094      -0.187000
      4 C3          -0.3520    -1.0800    -5.1000 ca         1 094      -0.010000
      5 C4           0.2520    -0.4470    -3.9990 ca         1 094      -0.197000
      6 S1           1.3230    -1.4020    -2.9180 ss         1 094      -0.104300
      7 C5           0.5250    -1.1280    -1.3310 ca         1 094       0.440300
      8 C6           1.2760    -0.6850    -0.2170 ca         1 094      -0.044800
      9 C7           0.6080    -0.4480     0.9960 ca         1 094      -0.102000
     10 C8          -0.7900    -0.6500     1.0640 ca         1 094      -0.040000
     11 N1          -1.5540    -0.4220     2.2750 n          1 094      -0.050000
     12 C9          -2.9540    -0.6460     2.3410 c          1 094       0.628000
     13 O1          -3.6180    -0.4150     3.3410 o          1 094      -0.562000
     14 N2          -3.5760    -1.1290     1.2130 ns         1 094      -0.502900
     15 C10         -2.9410    -1.4080    -0.0890 c6         1 094       0.065700
     16 C11         -1.4400    -1.1230    -0.0950 ca         1 094       0.308300
     17 N3          -0.8080    -1.3560    -1.2670 nb         1 094      -0.655000
     18 C12         -0.8600     0.1550     3.3990 ca         1 094      -0.037000
     19 C13         -0.6430    -0.6070     4.5700 ca         1 094       0.135500
     20 Cl1         -1.1460    -2.2960     4.6610 cl         1 094      -0.170500
     21 C14          0.0250    -0.0450     5.6700 ca         1 094      -0.103000
     22 C15          0.4760     1.2850     5.6210 ca         1 094      -0.086000
     23 C16          0.2550     2.0530     4.4660 ca         1 094      -0.103000
     24 C17         -0.4110     1.4970     3.3610 ca         1 094       0.135500
     25 Cl2         -0.7080     2.5220     1.9550 cl         1 094      -0.170500
     26 C18          2.7420    -0.4490    -0.2990 ce         1 094      -0.065400
     27 C19          3.6290    -1.4630    -0.4330 c2         1 094      -0.196200
     28 C20          5.1380    -1.2660    -0.4860 c6         1 094       0.192000
     29 N4           5.4810     0.1370    -0.8120 n7         1 094      -0.858400
     30 C21          4.7440     1.1040     0.0330 c6         1 094       0.160800
     31 C22          3.2220     1.0060    -0.2300 c6         1 094      -0.031200
     32 C23          0.0070     0.9220    -3.7610 ca         1 094       0.257000
     33 F2           0.5920     1.5530    -2.7180 f          1 094      -0.154000
     34 C24         -0.8370     1.6500    -4.6110 ca         1 094      -0.217000
     35 H2          -1.6700    -0.8340    -6.8010 ha         1 094       0.138000
     36 H3          -0.1690    -2.1360    -5.2920 ha         1 094       0.130000
     37 H7           1.1820    -0.1190     1.8580 ha         1 094       0.133000
     38 HN2         -4.5760    -1.2750     1.3020 hn         1 094       0.334500
     39 H101        -3.4280    -0.7930    -0.8580 h1         1 094       0.063200
     40 H102        -3.1090    -2.4640    -0.3440 h1         1 094       0.063200
     41 H14          0.1980    -0.6430     6.5610 ha         1 094       0.136500
     42 H15          0.9920     1.7180     6.4750 ha         1 094       0.125000
     43 H16          0.5940     3.0860     4.4290 ha         1 094       0.136500
     44 H19          3.2890    -2.4980    -0.4830 ha         1 094       0.184000
     45 H201         5.5680    -1.5300     0.4920 h1         1 094       0.041200
     46 H202         5.5810    -1.9380    -1.2360 h1         1 094       0.041200
     47 HN4          6.4910     0.2670    -0.6710 hn         1 094       0.414000
     48 H211         4.9490     0.8930     1.0930 h1         1 094       0.031700
     49 H212         5.0890     2.1260    -0.1780 h1         1 094       0.031700
     50 H221         2.9900     1.5000    -1.1830 hc         1 094       0.058700
     51 H222         2.6770     1.5590     0.5470 hc         1 094       0.058700
     52 H24         -1.0220     2.7030    -4.4240 ha         1 094       0.151000
@<TRIPOS>BOND
     1     1     2 1   
     2     2     3 ar  
     3     2    34 ar  
     4     3     4 ar  
     5     3    35 1   
     6     4     5 ar  
     7     4    36 1   
     8     5     6 1   
     9     5    32 ar  
    10     6     7 1   
    11     7     8 ar  
    12     7    17 ar  
    13     8     9 ar  
    14     8    26 1   
    15     9    10 ar  
    16     9    37 1   
    17    10    11 1   
    18    10    16 ar  
    19    11    12 1   
    20    11    18 1   
    21    12    13 2   
    22    12    14 1   
    23    14    15 1   
    24    14    38 1   
    25    15    16 1   
    26    15    39 1   
    27    15    40 1   
    28    16    17 ar  
    29    18    19 ar  
    30    18    24 ar  
    31    19    20 1   
    32    19    21 ar  
    33    21    22 ar  
    34    21    41 1   
    35    22    23 ar  
    36    22    42 1   
    37    23    24 ar  
    38    23    43 1   
    39    24    25 1   
    40    26    27 2   
    41    26    31 1   
    42    27    28 1   
    43    27    44 1   
    44    28    29 1   
    45    28    45 1   
    46    28    46 1   
    47    29    30 1   
    48    29    47 1   
    49    30    31 1   
    50    30    48 1   
    51    30    49 1   
    52    31    50 1   
    53    31    51 1   
    54    32    33 1   
    55    32    34 ar  
    56    34    52 1   
@<TRIPOS>SUBSTRUCTURE
     1 094         1 TEMP              0 ****  ****    0 ROOT
