@<TRIPOS>MOLECULE
095
   43    46     1     0     0
SMALL
abcg2


@<TRIPOS>ATOM
      1 C5          -4.6250     2.5550     0.4020 ca         1 095      -0.140000
      2 C8          -5.4940     2.0050    -0.5320 ca         1 095      -0.073000
      3 C3          -3.4410     1.8960     0.7370 ca         1 095      -0.055000
      4 C6          -5.2090     0.7920    -1.1570 ca         1 095      -0.144000
      5 C1          -3.1490     0.6950     0.1250 ca         1 095      -0.132300
      6 C17         -4.0310     0.1590    -0.8110 ca         1 095      -0.027000
      7 C14         -2.3190    -1.3430    -0.7160 c          1 095       0.565000
      8 C9           1.5930    -0.8080     0.7460 c          1 095       0.599100
      9 C19          4.7040    -0.2730     0.8610 c6         1 095      -0.127900
     10 C23          4.0250     1.0790    -1.1140 c6         1 095      -0.127900
     11 C4          -0.5850     0.3330     0.0820 c5         1 095      -0.072400
     12 C13         -1.8930    -0.8770     1.7130 c5         1 095       0.168800
     13 C20          6.0750    -0.3980     0.2080 c6         1 095       0.154600
     14 C22          5.4360     0.8690    -1.6480 c6         1 095       0.154600
     15 C7           0.2640    -0.2910     1.2340 c5         1 095       0.096500
     16 C18          3.6520    -0.0910    -0.2220 c6         1 095       0.179300
     17 C2          -1.9970    -0.2450     0.2940 c5         1 095      -0.135700
     18 N16         -3.5170    -1.0420    -1.2840 ns         1 095      -0.144000
     19 N10         -0.5300    -1.3300     1.8560 n7         1 095      -0.820400
     20 O15         -1.6400    -2.3210    -0.9580 o          1 095      -0.524000
     21 O21          6.3750     0.7130    -0.6070 os         1 095      -0.447000
     22 O11          2.3610     0.1920     0.3450 os         1 095      -0.451100
     23 H1          -4.8660     3.4990     0.8710 ha         1 095       0.119000
     24 H2          -6.4090     2.5250    -0.7830 ha         1 095       0.117000
     25 H3          -2.7650     2.3290     1.4640 ha         1 095       0.120000
     26 H4          -5.8870     0.3670    -1.8860 ha         1 095       0.123000
     27 H5           4.5120    -1.1680     1.4560 hc         1 095       0.064700
     28 H6           4.6900     0.5880     1.5350 hc         1 095       0.064700
     29 H7           3.9810     2.0130    -0.5470 hc         1 095       0.064700
     30 H8           3.3300     1.1630    -1.9520 hc         1 095       0.064700
     31 H9          -0.5920     1.4190     0.1550 hc         1 095       0.067200
     32 H10         -0.1980     0.0820    -0.9060 hc         1 095       0.067200
     33 H11         -2.1020    -0.0940     2.4490 h1         1 095       0.067700
     34 H12         -2.6060    -1.6830     1.8830 h1         1 095       0.067700
     35 H13          6.8530    -0.4590     0.9700 h1         1 095       0.048700
     36 H14          6.1180    -1.3270    -0.3800 h1         1 095       0.048700
     37 H15          5.4520    -0.0100    -2.3090 h1         1 095       0.048700
     38 H16          5.7500     1.7300    -2.2400 h1         1 095       0.048700
     39 H17          0.4580     0.4950     1.9710 h1         1 095       0.090700
     40 H18          3.5880    -1.0000    -0.8290 h1         1 095       0.064700
     41 H19         -3.9660    -1.6240    -1.9760 hn         1 095       0.175000
     42 H20         -0.4070    -2.2000     1.3500 hn         1 095       0.446000
     43 O12          1.9020    -1.9720     0.7040 o          1 095      -0.471000
@<TRIPOS>BOND
     1     1     2 ar  
     2     1     3 ar  
     3     1    23 1   
     4     2     4 ar  
     5     2    24 1   
     6     3     5 ar  
     7     3    25 1   
     8     4     6 ar  
     9     4    26 1   
    10     5     6 ar  
    11     5    17 1   
    12     6    18 1   
    13     7    17 1   
    14     7    18 1   
    15     7    20 2   
    16     8    15 1   
    17     8    22 1   
    18     8    43 2   
    19     9    13 1   
    20     9    16 1   
    21     9    27 1   
    22     9    28 1   
    23    10    14 1   
    24    10    16 1   
    25    10    29 1   
    26    10    30 1   
    27    11    15 1   
    28    11    17 1   
    29    11    31 1   
    30    11    32 1   
    31    12    17 1   
    32    12    19 1   
    33    12    33 1   
    34    12    34 1   
    35    13    21 1   
    36    13    35 1   
    37    13    36 1   
    38    14    21 1   
    39    14    37 1   
    40    14    38 1   
    41    15    19 1   
    42    15    39 1   
    43    16    22 1   
    44    16    40 1   
    45    18    41 1   
    46    19    42 1   
@<TRIPOS>SUBSTRUCTURE
     1 095         1 TEMP              0 ****  ****    0 ROOT
