@<TRIPOS>MOLECULE
095
   43    46     1     0     0
SMALL
No Charge or Current Charge


@<TRIPOS>ATOM
      1 C5          -4.5110     2.6290     0.2990 ca         1 095      -0.140000
      2 C8          -5.4200     2.0910    -0.6440 ca         1 095      -0.073000
      3 C3          -3.3750     1.8950     0.7050 ca         1 095      -0.055000
      4 C6          -5.2010     0.8100    -1.1920 ca         1 095      -0.144000
      5 C1          -3.1740     0.6230     0.1470 ca         1 095      -0.132300
      6 C17         -4.0670     0.1080    -0.7700 ca         1 095      -0.027000
      7 C14         -2.4520    -1.6030    -0.5470 c          1 095       0.565000
      8 C9           1.5930    -0.8800     0.6510 c          1 095       0.599100
      9 C19          4.6900    -0.3680     0.7780 c6         1 095      -0.127900
     10 C23          4.1100     1.2330    -1.1080 c6         1 095      -0.127900
     11 C4          -0.6590     0.2060     0.0630 c5         1 095      -0.072400
     12 C13         -1.9870    -0.8050     1.8670 c5         1 095       0.168800
     13 C20          6.1240    -0.4280     0.2040 c6         1 095       0.154600
     14 C22          5.5700     1.0950    -1.5950 c6         1 095       0.154600
     15 C7           0.2310    -0.3510     1.2280 c5         1 095       0.096500
     16 C18          3.6700    -0.0380    -0.3440 c6         1 095       0.179300
     17 C2          -2.0620    -0.3990     0.3810 c5         1 095      -0.135700
     18 N16         -3.6170    -1.1570    -1.1390 ns         1 095      -0.144000
     19 N10         -0.6230    -1.3690     1.9400 n7         1 095      -0.820400
     20 O15         -1.8970    -2.6790    -0.7340 o          1 095      -0.524000
     21 O21          6.4320     0.8100    -0.4730 os         1 095      -0.447000
     22 O11          2.3530     0.1700     0.1980 os         1 095      -0.451100
     23 H1          -4.6890     3.6180     0.7150 ha         1 095       0.119000
     24 H2          -6.2910     2.6680    -0.9480 ha         1 095       0.117000
     25 H3          -2.6760     2.3070     1.4290 ha         1 095       0.120000
     26 H4          -5.8910     0.3830    -1.9160 ha         1 095       0.123000
     27 H5           4.4480    -1.3280     1.2510 hc         1 095       0.064700
     28 H6           4.6420     0.3970     1.5650 hc         1 095       0.064700
     29 H7           4.0220     2.1130    -0.4570 hc         1 095       0.064700
     30 H8           3.4460     1.4040    -1.9660 hc         1 095       0.064700
     31 H9          -0.6570     1.3020     0.0730 hc         1 095       0.067200
     32 H10         -0.3020    -0.0980    -0.9290 hc         1 095       0.067200
     33 H11         -2.0820     0.0680     2.5300 h1         1 095       0.067700
     34 H12         -2.7610    -1.5340     2.1510 h1         1 095       0.067700
     35 H13          6.8480    -0.5820     1.0160 h1         1 095       0.048700
     36 H14          6.2200    -1.2640    -0.5040 h1         1 095       0.048700
     37 H15          5.6550     0.2860    -2.3350 h1         1 095       0.048700
     38 H16          5.8980     2.0310    -2.0700 h1         1 095       0.048700
     39 H17          0.4810     0.4700     1.9150 h1         1 095       0.090700
     40 H18          3.6330    -0.8740    -1.0600 h1         1 095       0.064700
     41 H19         -4.1230    -1.7250    -1.8070 hn         1 095       0.175000
     42 H20         -0.6090    -2.2410     1.3900 hn         1 095       0.446000
     43 O12          1.9480    -2.0520     0.5960 o          1 095      -0.471000
@<TRIPOS>BOND
     1     1     2 ar  
     2     1     3 ar  
     3     1    23 1   
     4     2     4 ar  
     5     2    24 1   
     6     3     5 ar  
     7     3    25 1   
     8     4     6 ar  
     9     4    26 1   
    10     5     6 ar  
    11     5    17 1   
    12     6    18 1   
    13     7    17 1   
    14     7    18 1   
    15     7    20 2   
    16     8    15 1   
    17     8    22 1   
    18     8    43 2   
    19     9    13 1   
    20     9    16 1   
    21     9    27 1   
    22     9    28 1   
    23    10    14 1   
    24    10    16 1   
    25    10    29 1   
    26    10    30 1   
    27    11    15 1   
    28    11    17 1   
    29    11    31 1   
    30    11    32 1   
    31    12    17 1   
    32    12    19 1   
    33    12    33 1   
    34    12    34 1   
    35    13    21 1   
    36    13    35 1   
    37    13    36 1   
    38    14    21 1   
    39    14    37 1   
    40    14    38 1   
    41    15    19 1   
    42    15    39 1   
    43    16    22 1   
    44    16    40 1   
    45    18    41 1   
    46    19    42 1   
@<TRIPOS>SUBSTRUCTURE
     1 095         1 TEMP              0 ****  ****    0 ROOT
