@<TRIPOS>MOLECULE
096
   61    64     1     0     0
SMALL
No Charge or Current Charge


@<TRIPOS>ATOM
      1 S           -2.7810    -1.4210     2.6060 ss         1 096      -0.401000
      2 C1          -5.7430     1.4960    -0.7030 c3         1 096       0.154900
      3 N1          -1.4040    -1.6040     0.2880 n          1 096      -0.244400
      4 C2          -3.5170     2.2570     0.0700 ca         1 096       0.041100
      5 N2           0.0530     0.0690    -2.7700 nb         1 096      -0.662000
      6 O2          -2.3210    -3.5710    -0.5710 o          1 096      -0.513000
      7 C3          -3.1340     0.9650     0.4860 ca         1 096      -0.121000
      8 N3           3.8480     0.2420     0.6100 n3         1 096      -0.725600
      9 C4          -1.8580     0.7300     1.0520 ca         1 096      -0.107300
     10 N4           6.3040    -0.3560    -0.9960 n3         1 096      -0.715600
     11 C5          -1.4950    -0.6970     1.4780 c5         1 096       0.322000
     12 C6          -2.5210    -3.0750     1.8330 c5         1 096      -0.042400
     13 C7          -2.1170    -2.8210     0.3760 c          1 096       0.570000
     14 C8          -0.5310    -1.3180    -0.8400 ca         1 096      -0.104000
     15 C9           0.3210    -2.3340    -1.3230 ca         1 096      -0.066000
     16 C10          1.0790    -2.0980    -2.4810 ca         1 096      -0.147000
     17 C11          0.9270    -0.8820    -3.1620 ca         1 096       0.336900
     18 C12         -0.6720    -0.1600    -1.6490 ca         1 096       0.357900
     19 C13         -0.9630     1.8220     1.2180 ca         1 096      -0.038300
     20 C14          0.4280     1.6660     1.8430 c3         1 096      -0.032100
     21 C15          1.4530     1.0420     0.8710 c3         1 096      -0.083400
     22 C16          2.9070     1.0830     1.3890 c3         1 096       0.171800
     23 C17          5.2080     0.1870     1.2310 c6         1 096       0.164800
     24 C18          6.1880    -0.7420     0.4430 c6         1 096       0.163300
     25 C19          7.2450    -1.2140    -1.7450 c3         1 096       0.152100
     26 C20          4.9480    -0.3020    -1.6200 c6         1 096       0.163300
     27 C21          3.9650     0.6250    -0.8350 c6         1 096       0.164800
     28 C22         -1.3550     3.1080     0.7960 ca         1 096      -0.135000
     29 C23         -2.6160     3.3240     0.2270 ca         1 096       0.143100
     30 H1          -6.0320     1.0360     0.2510 h1         1 096       0.044033
     31 H1A         -6.6430     1.9220    -1.1620 h1         1 096       0.044033
     32 H1B         -5.3600     0.7130    -1.3700 h1         1 096       0.044033
     33 H3          -3.8140     0.1260     0.3660 ha         1 096       0.130000
     34 HO3         -3.8880     4.4980    -0.5360 ho         1 096       0.485000
     35 H5          -0.5190    -0.7520     1.9710 h2         1 096       0.082700
     36 H6          -1.7020    -3.6090     2.3310 h1         1 096       0.102200
     37 H6A         -3.4340    -3.6820     1.8630 h1         1 096       0.102200
     38 H9           0.4230    -3.2790    -0.7940 ha         1 096       0.127000
     39 H10          1.7720    -2.8470    -2.8530 ha         1 096       0.129000
     40 H11          1.5020    -0.6740    -4.0640 h4         1 096       0.019100
     41 H12         -1.3950     0.6160    -1.4150 h4         1 096       0.029100
     42 H14          0.8050     2.6460     2.1590 hc         1 096       0.049200
     43 H14A         0.3770     1.0680     2.7600 hc         1 096       0.049200
     44 H15          1.1890    -0.0030     0.6850 hc         1 096       0.053200
     45 H15A         1.3940     1.5690    -0.0880 hc         1 096       0.053200
     46 H16          2.9000     0.7340     2.4310 h1         1 096       0.029700
     47 H16A         3.2490     2.1270     1.4000 h1         1 096       0.029700
     48 H17          5.6430     1.1970     1.2740 h1         1 096       0.038950
     49 H17A         5.1390    -0.1770     2.2660 h1         1 096       0.038950
     50 H18          5.8290    -1.7790     0.5280 h1         1 096       0.035700
     51 H18A         7.1740    -0.7030     0.9280 h1         1 096       0.035700
     52 H19          7.3420    -0.8700    -2.7830 h1         1 096       0.030700
     53 H19A         8.2430    -1.1890    -1.2850 h1         1 096       0.030700
     54 H19B         6.8990    -2.2570    -1.7590 h1         1 096       0.030700
     55 H20          5.0200     0.0600    -2.6560 h1         1 096       0.035700
     56 H20A         4.5120    -1.3120    -1.6640 h1         1 096       0.035700
     57 H21          2.9870     0.5730    -1.3320 h1         1 096       0.038950
     58 H21A         4.3170     1.6640    -0.9230 h1         1 096       0.038950
     59 H22         -0.6780     3.9510     0.9090 ha         1 096       0.133000
     60 O1          -4.7530     2.5220    -0.4980 os         1 096      -0.365100
     61 O3          -2.9770     4.5770    -0.1750 oh         1 096      -0.529100
@<TRIPOS>BOND
     1     1    11 1   
     2     1    12 1   
     3     2    30 1   
     4     2    31 1   
     5     2    32 1   
     6     2    60 1   
     7     3    11 1   
     8     3    13 1   
     9     3    14 1   
    10     4     7 ar  
    11     4    29 ar  
    12     4    60 1   
    13     5    17 ar  
    14     5    18 ar  
    15     6    13 2   
    16     7     9 ar  
    17     7    33 1   
    18     8    22 1   
    19     8    23 1   
    20     8    27 1   
    21     9    11 1   
    22     9    19 ar  
    23    10    24 1   
    24    10    25 1   
    25    10    26 1   
    26    11    35 1   
    27    12    13 1   
    28    12    36 1   
    29    12    37 1   
    30    14    15 ar  
    31    14    18 ar  
    32    15    16 ar  
    33    15    38 1   
    34    16    17 ar  
    35    16    39 1   
    36    17    40 1   
    37    18    41 1   
    38    19    20 1   
    39    19    28 ar  
    40    20    21 1   
    41    20    42 1   
    42    20    43 1   
    43    21    22 1   
    44    21    44 1   
    45    21    45 1   
    46    22    46 1   
    47    22    47 1   
    48    23    24 1   
    49    23    48 1   
    50    23    49 1   
    51    24    50 1   
    52    24    51 1   
    53    25    52 1   
    54    25    53 1   
    55    25    54 1   
    56    26    27 1   
    57    26    55 1   
    58    26    56 1   
    59    27    57 1   
    60    27    58 1   
    61    28    29 ar  
    62    28    59 1   
    63    29    61 1   
    64    34    61 1   
@<TRIPOS>SUBSTRUCTURE
     1 096         1 TEMP              0 ****  ****    0 ROOT
