@<TRIPOS>MOLECULE
096
   61    64     1     0     0
SMALL
bcc


@<TRIPOS>ATOM
      1 S           -2.7940    -1.3440     2.6590 ss         1 096      -0.305200
      2 C1          -5.4380     1.5360    -0.9320 c3         1 096       0.131700
      3 N1          -1.5890    -1.6980     0.3670 n          1 096      -0.404000
      4 C2          -3.3650     2.1980     0.0200 ca         1 096       0.041100
      5 N2          -0.1240    -0.4680    -2.7640 nb         1 096      -0.662000
      6 O2          -2.2700    -3.7610    -0.2960 o          1 096      -0.588500
      7 C3          -3.0380     0.9320     0.4530 ca         1 096      -0.139000
      8 N3           3.8010     0.2480     0.4330 n3         1 096      -0.725600
      9 C4          -1.8060     0.6660     1.0620 ca         1 096      -0.107300
     10 N4           6.1830    -0.1650    -1.0930 n3         1 096      -0.715600
     11 C5          -1.5230    -0.7530     1.4760 c5         1 096       0.274100
     12 C6          -2.9300    -2.9630     1.8750 c5         1 096      -0.090300
     13 C7          -2.2490    -2.8730     0.5290 c          1 096       0.712500
     14 C8          -0.6760    -1.5360    -0.7040 ca         1 096      -0.076700
     15 C9           0.5450    -2.1950    -0.6940 ca         1 096      -0.084000
     16 C10          1.4270    -1.9660    -1.7350 ca         1 096      -0.230300
     17 C11          1.0490    -1.0890    -2.7410 ca         1 096       0.402200
     18 C12         -0.9690    -0.6920    -1.7670 ca         1 096       0.423200
     19 C13         -0.8920     1.6980     1.2550 ca         1 096      -0.038300
     20 C14          0.4840     1.5100     1.8390 c3         1 096      -0.032100
     21 C15          1.4940     1.0820     0.7730 c3         1 096      -0.083400
     22 C16          2.9060     0.9560     1.3260 c3         1 096       0.171800
     23 C17          5.0720    -0.0280     1.0710 c6         1 096       0.164800
     24 C18          5.9620    -0.8520     0.1630 c6         1 096       0.163300
     25 C19          7.0650    -0.9100    -1.9610 c3         1 096       0.152100
     26 C20          4.9150     0.1160    -1.7340 c6         1 096       0.163300
     27 C21          4.0150     0.9330    -0.8260 c6         1 096       0.164800
     28 C22         -1.2420     2.9830     0.8280 ca         1 096      -0.153000
     29 C23         -2.4500     3.2480     0.2150 ca         1 096       0.143100
     30 H1          -5.8240     1.0220    -0.0490 h1         1 096       0.044033
     31 H1A         -6.2630     2.0240    -1.4450 h1         1 096       0.044033
     32 H1B         -4.9900     0.7980    -1.6040 h1         1 096       0.044033
     33 H3          -3.7400     0.1170     0.3290 ha         1 096       0.148000
     34 HO3         -3.5950     4.5300    -0.6100 ho         1 096       0.446000
     35 H5          -0.5410    -0.8300     1.9440 h2         1 096       0.082700
     36 H6          -2.4380    -3.7430     2.4600 h1         1 096       0.102200
     37 H6A         -3.9760    -3.2400     1.7490 h1         1 096       0.102200
     38 H9           0.8050    -2.8590     0.1210 ha         1 096       0.145000
     39 H10          2.3930    -2.4500    -1.7660 ha         1 096       0.147000
     40 H11          1.7240    -0.8820    -3.5640 h4         1 096       0.019100
     41 H12         -1.9250    -0.1810    -1.8070 h4         1 096       0.029100
     42 H14          0.8070     2.4540     2.2850 hc         1 096       0.049200
     43 H14A         0.4800     0.7860     2.6580 hc         1 096       0.049200
     44 H15          1.2030     0.1180     0.3520 hc         1 096       0.053200
     45 H15A         1.4590     1.8000    -0.0500 hc         1 096       0.053200
     46 H16          2.8670     0.3900     2.2630 h1         1 096       0.029700
     47 H16A         3.2930     1.9570     1.5870 h1         1 096       0.029700
     48 H17          5.6020     0.9000     1.3520 h1         1 096       0.038950
     49 H17A         4.8920    -0.5830     1.9960 h1         1 096       0.038950
     50 H18          5.5010    -1.8440     0.0070 h1         1 096       0.035700
     51 H18A         6.9240    -1.0200     0.6540 h1         1 096       0.035700
     52 H19          7.2540    -0.3480    -2.8770 h1         1 096       0.030700
     53 H19A         8.0230    -1.0760    -1.4660 h1         1 096       0.030700
     54 H19B         6.6600    -1.8930    -2.2480 h1         1 096       0.030700
     55 H20          5.0940     0.6730    -2.6570 h1         1 096       0.035700
     56 H20A         4.3890    -0.8140    -2.0160 h1         1 096       0.035700
     57 H21          3.0610     1.0780    -1.3350 h1         1 096       0.038950
     58 H21A         4.4570     1.9340    -0.6740 h1         1 096       0.038950
     59 H22         -0.5440     3.8000     0.9700 ha         1 096       0.151000
     60 O1          -4.5180     2.5530    -0.5890 os         1 096      -0.341900
     61 O3          -2.7310     4.5030    -0.1800 oh         1 096      -0.490100
@<TRIPOS>BOND
     1     1    11 1   
     2     1    12 1   
     3     2    30 1   
     4     2    31 1   
     5     2    32 1   
     6     2    60 1   
     7     3    11 1   
     8     3    13 1   
     9     3    14 1   
    10     4     7 ar  
    11     4    29 ar  
    12     4    60 1   
    13     5    17 ar  
    14     5    18 ar  
    15     6    13 2   
    16     7     9 ar  
    17     7    33 1   
    18     8    22 1   
    19     8    23 1   
    20     8    27 1   
    21     9    11 1   
    22     9    19 ar  
    23    10    24 1   
    24    10    25 1   
    25    10    26 1   
    26    11    35 1   
    27    12    13 1   
    28    12    36 1   
    29    12    37 1   
    30    14    15 ar  
    31    14    18 ar  
    32    15    16 ar  
    33    15    38 1   
    34    16    17 ar  
    35    16    39 1   
    36    17    40 1   
    37    18    41 1   
    38    19    20 1   
    39    19    28 ar  
    40    20    21 1   
    41    20    42 1   
    42    20    43 1   
    43    21    22 1   
    44    21    44 1   
    45    21    45 1   
    46    22    46 1   
    47    22    47 1   
    48    23    24 1   
    49    23    48 1   
    50    23    49 1   
    51    24    50 1   
    52    24    51 1   
    53    25    52 1   
    54    25    53 1   
    55    25    54 1   
    56    26    27 1   
    57    26    55 1   
    58    26    56 1   
    59    27    57 1   
    60    27    58 1   
    61    28    29 ar  
    62    28    59 1   
    63    29    61 1   
    64    34    61 1   
@<TRIPOS>SUBSTRUCTURE
     1 096         1 TEMP              0 ****  ****    0 ROOT
