@<TRIPOS>MOLECULE
097
   52    51     1     0     0
SMALL
No Charge or Current Charge


@<TRIPOS>ATOM
      1 N1           1.2910    -0.0810    -0.4210 ns         1 097      -0.495900
      2 C2          -2.7540     2.0260     1.8640 c3         1 097      -0.091600
      3 O2           3.4960     0.8480    -1.8630 o          1 097      -0.611100
      4 C4           0.1540     0.1410     0.3260 c          1 097       0.616100
      5 O3          -5.9340     0.1880    -0.6520 oh         1 097      -0.420100
      6 C5           2.6510    -0.3160     0.1280 c3         1 097       0.038700
      7 C6           3.0090    -1.8530     0.1750 c3         1 097      -0.050000
      8 C8           2.9680    -2.4820    -1.2460 c3         1 097      -0.087767
      9 C9           4.4280    -2.0720     0.7720 c3         1 097      -0.087767
     10 C10          3.6670     0.5460    -0.6870 c          1 097       0.587100
     11 C11          5.8330     1.8170    -0.5630 c3         1 097       0.093300
     12 N3          -4.6790    -0.2710    -0.0930 ns         1 097      -0.379400
     13 O4          -3.6570    -0.5300    -2.1290 o          1 097      -0.583100
     14 C13         -2.2080    -0.7030    -0.1620 c3         1 097       0.111300
     15 O5          -1.6650    -2.0070    -0.4780 oh         1 097      -0.634000
     16 C14         -1.1290     0.3730    -0.4980 c3         1 097      -0.170700
     17 C15         -1.5970     1.8720    -0.4730 c3         1 097      -0.067400
     18 C1          -1.7140     2.6240     0.8900 c3         1 097      -0.059700
     19 C3          -2.0170     4.1220     0.6480 c3         1 097      -0.091600
     20 O1           0.1750     0.1500     1.5490 o          1 097      -0.603100
     21 C7           1.9980    -2.6110     1.0810 c3         1 097      -0.087767
     22 N2           4.7690     0.9930     0.0130 ns         1 097      -0.500900
     23 HN1          1.1880    -0.0340    -1.4280 hn         1 097       0.331500
     24 H21         -2.4500     1.0350     2.2140 hc         1 097       0.034700
     25 H22         -2.8540     2.6600     2.7540 hc         1 097       0.034700
     26 H23         -3.7400     1.9560     1.3910 hc         1 097       0.034700
     27 HO3         -6.5960    -0.4500    -0.2940 ho         1 097       0.446000
     28 H5           2.6780     0.0730     1.1550 h1         1 097       0.083700
     29 H81          3.6890    -2.0000    -1.9170 hc         1 097       0.039478
     30 H82          3.2170    -3.5500    -1.2060 hc         1 097       0.039478
     31 H83          1.9720    -2.3910    -1.6960 hc         1 097       0.039478
     32 H91          4.5210    -1.5890     1.7530 hc         1 097       0.039478
     33 H92          4.6360    -3.1410     0.9050 hc         1 097       0.039478
     34 H93          5.2090    -1.6730     0.1140 hc         1 097       0.039478
     35 H111         6.3010     1.2840    -1.4010 h1         1 097       0.041700
     36 H112         5.4130     2.7650    -0.9220 h1         1 097       0.041700
     37 H113         6.5920     2.0240     0.2030 h1         1 097       0.041700
     38 HN3         -4.5550    -0.1260     0.9090 hn         1 097       0.344500
     39 HO5         -1.7960    -2.1510    -1.4430 ho         1 097       0.458000
     40 H151        -0.8700     2.4300    -1.0790 hc         1 097       0.052200
     41 H152        -2.5450     1.9720    -1.0150 hc         1 097       0.052200
     42 H1          -0.7380     2.5880     1.3870 hc         1 097       0.057700
     43 H31         -2.0350     4.6730     1.5960 hc         1 097       0.034700
     44 H32         -1.2490     4.5780     0.0120 hc         1 097       0.034700
     45 H33         -2.9900     4.2510     0.1580 hc         1 097       0.034700
     46 H71          0.9840    -2.5780     0.6650 hc         1 097       0.039478
     47 H72          2.2740    -3.6670     1.1820 hc         1 097       0.039478
     48 H73          1.9680    -2.1740     2.0860 hc         1 097       0.039478
     49 HN2          4.8410     0.7190     0.9870 hn         1 097       0.319500
     50 H28         -2.4220    -0.6600     0.9120 h1         1 097       0.100700
     51 H29         -0.8610     0.2020    -1.5490 hc         1 097       0.068700
     52 C12         -3.5670    -0.4800    -0.9060 c          1 097       0.569100
@<TRIPOS>BOND
     1     1     4 1   
     2     1     6 1   
     3     1    23 1   
     4     2    18 1   
     5     2    24 1   
     6     2    25 1   
     7     2    26 1   
     8     3    10 2   
     9     4    16 1   
    10     4    20 2   
    11     5    12 1   
    12     5    27 1   
    13     6     7 1   
    14     6    10 1   
    15     6    28 1   
    16     7     8 1   
    17     7     9 1   
    18     7    21 1   
    19     8    29 1   
    20     8    30 1   
    21     8    31 1   
    22     9    32 1   
    23     9    33 1   
    24     9    34 1   
    25    10    22 1   
    26    11    22 1   
    27    11    35 1   
    28    11    36 1   
    29    11    37 1   
    30    12    38 1   
    31    12    52 1   
    32    13    52 2   
    33    14    15 1   
    34    14    16 1   
    35    14    50 1   
    36    14    52 1   
    37    15    39 1   
    38    16    17 1   
    39    16    51 1   
    40    17    18 1   
    41    17    40 1   
    42    17    41 1   
    43    18    19 1   
    44    18    42 1   
    45    19    43 1   
    46    19    44 1   
    47    19    45 1   
    48    21    46 1   
    49    21    47 1   
    50    21    48 1   
    51    22    49 1   
@<TRIPOS>SUBSTRUCTURE
     1 097         1 TEMP              0 ****  ****    0 ROOT
