@<TRIPOS>MOLECULE
097
   52    51     1     0     0
SMALL
bcc


@<TRIPOS>ATOM
      1 N1           1.1490    -0.2570    -0.3360 ns         1 097      -0.562900
      2 C2          -2.2840     2.2910     1.8060 c3         1 097      -0.091600
      3 O2           3.3260     0.9540    -1.5690 o          1 097      -0.611100
      4 C4           0.0420    -0.1740     0.4230 c          1 097       0.683100
      5 O3          -5.7380     0.4290    -0.6690 oh         1 097      -0.381100
      6 C5           2.4800    -0.4640     0.1800 c3         1 097       0.038700
      7 C6           3.0070    -1.8980    -0.1140 c3         1 097      -0.050000
      8 C8           2.9530    -2.2330    -1.6050 c3         1 097      -0.087767
      9 C9           4.4460    -2.0270     0.3860 c3         1 097      -0.087767
     10 C10          3.3790     0.6310    -0.3890 c          1 097       0.654100
     11 C11          5.1580     2.2270     0.1000 c3         1 097       0.093300
     12 N3          -4.6140     0.0870     0.0160 ns         1 097      -0.446400
     13 O4          -3.7230    -1.0930    -1.6960 o          1 097      -0.583100
     14 C13         -2.3680    -0.7560     0.2510 c3         1 097       0.088100
     15 O5          -2.0220    -2.1160     0.2970 oh         1 097      -0.571800
     16 C14         -1.2350     0.0730    -0.3640 c3         1 097      -0.170700
     17 C15         -1.4920     1.5850    -0.5340 c3         1 097      -0.067400
     18 C1          -1.3030     2.5250     0.6620 c3         1 097      -0.059700
     19 C3          -1.4220     3.9650     0.1690 c3         1 097      -0.091600
     20 O1           0.0540    -0.2610     1.6420 o          1 097      -0.603100
     21 C7           2.1280    -2.8900     0.6520 c3         1 097      -0.087767
     22 N2           4.2090     1.2080     0.4850 ns         1 097      -0.567900
     23 HN1          1.0580    -0.1420    -1.3340 hn         1 097       0.331500
     24 H21         -2.1710     1.3070     2.2560 hc         1 097       0.034700
     25 H22         -2.1290     3.0250     2.5980 hc         1 097       0.034700
     26 H23         -3.3160     2.4030     1.4640 hc         1 097       0.034700
     27 HO3         -6.3990    -0.2460    -0.4600 ho         1 097       0.407000
     28 H5           2.4240    -0.3550     1.2660 h1         1 097       0.083700
     29 H81          3.5940    -1.5850    -2.2010 hc         1 097       0.039478
     30 H82          3.2830    -3.2610    -1.7600 hc         1 097       0.039478
     31 H83          1.9370    -2.1610    -1.9980 hc         1 097       0.039478
     32 H91          4.5360    -1.7510     1.4390 hc         1 097       0.039478
     33 H92          4.7820    -3.0610     0.2900 hc         1 097       0.039478
     34 H93          5.1420    -1.4090    -0.1830 hc         1 097       0.039478
     35 H111         5.9190     1.8370    -0.5770 h1         1 097       0.041700
     36 H112         4.6620     3.0660    -0.3880 h1         1 097       0.041700
     37 H113         5.6510     2.5930     0.9960 h1         1 097       0.041700
     38 HN3         -4.4920     0.5540     0.9040 hn         1 097       0.344500
     39 HO5         -1.9770    -2.4480    -0.6080 ho         1 097       0.419000
     40 H151        -0.8190     1.9250    -1.3260 hc         1 097       0.052200
     41 H152        -2.4980     1.7320    -0.9430 hc         1 097       0.052200
     42 H1          -0.2880     2.3940     1.0500 hc         1 097       0.057700
     43 H31         -1.2360     4.6740     0.9770 hc         1 097       0.034700
     44 H32         -0.7090     4.1780    -0.6290 hc         1 097       0.034700
     45 H33         -2.4250     4.1630    -0.2180 hc         1 097       0.034700
     46 H71          1.0810    -2.8280     0.3510 hc         1 097       0.039478
     47 H72          2.4630    -3.9110     0.4590 hc         1 097       0.039478
     48 H73          2.1780    -2.7190     1.7290 hc         1 097       0.039478
     49 HN2          4.2020     0.9040     1.4440 hn         1 097       0.319500
     50 H28         -2.5490    -0.4520     1.2840 h1         1 097       0.100700
     51 H29         -1.0980    -0.3150    -1.3810 hc         1 097       0.068700
     52 C12         -3.6350    -0.5990    -0.5850 c          1 097       0.636100
@<TRIPOS>BOND
     1     1     4 1   
     2     1     6 1   
     3     1    23 1   
     4     2    18 1   
     5     2    24 1   
     6     2    25 1   
     7     2    26 1   
     8     3    10 2   
     9     4    16 1   
    10     4    20 2   
    11     5    12 1   
    12     5    27 1   
    13     6     7 1   
    14     6    10 1   
    15     6    28 1   
    16     7     8 1   
    17     7     9 1   
    18     7    21 1   
    19     8    29 1   
    20     8    30 1   
    21     8    31 1   
    22     9    32 1   
    23     9    33 1   
    24     9    34 1   
    25    10    22 1   
    26    11    22 1   
    27    11    35 1   
    28    11    36 1   
    29    11    37 1   
    30    12    38 1   
    31    12    52 1   
    32    13    52 2   
    33    14    15 1   
    34    14    16 1   
    35    14    50 1   
    36    14    52 1   
    37    15    39 1   
    38    16    17 1   
    39    16    51 1   
    40    17    18 1   
    41    17    40 1   
    42    17    41 1   
    43    18    19 1   
    44    18    42 1   
    45    19    43 1   
    46    19    44 1   
    47    19    45 1   
    48    21    46 1   
    49    21    47 1   
    50    21    48 1   
    51    22    49 1   
@<TRIPOS>SUBSTRUCTURE
     1 097         1 TEMP              0 ****  ****    0 ROOT
