@<TRIPOS>MOLECULE
098
   61    64     1     0     0
SMALL
abcg2


@<TRIPOS>ATOM
      1 C5           2.2480     1.0280     0.1310 c3         1 098       0.113500
      2 C7           4.3510     1.9530    -0.6730 c3         1 098       0.186800
      3 C8           5.5660     1.6310    -1.4960 cx         1 098      -0.130700
      4 C10          6.8560     2.3360    -1.2220 cx         1 098      -0.130400
      5 C13          0.5780    -2.4590    -0.4410 ca         1 098      -0.054300
      6 C15         -0.7080    -3.5460    -2.1610 ca         1 098      -0.075000
      7 C17         -1.2570    -3.9190     0.1490 ca         1 098       0.132100
      8 C20         -0.0930     0.1750     0.5490 c          1 098       0.597100
      9 C24         -3.4360    -0.8240    -0.0060 c5         1 098       0.155300
     10 C26         -4.8500    -0.2430     0.0840 c5         1 098      -0.033100
     11 C28         -5.6000     2.1060    -0.7860 ca         1 098      -0.094000
     12 N2           2.1430     2.2180     2.2200 ns         1 098      -0.370400
     13 C3           2.5580     1.0870     1.6290 c          1 098       0.578100
     14 O4           3.1920     0.2190     2.2020 o          1 098      -0.574100
     15 N6           3.4480     0.8120    -0.6470 n7         1 098      -0.860400
     16 C9           6.7060     0.8880    -0.8630 cx         1 098      -0.130400
     17 C11          1.1920    -0.0360    -0.2290 c3         1 098      -0.126700
     18 C12          1.6530    -1.4920    -0.0260 c3         1 098      -0.029100
     19 C14          0.3280    -2.7010    -1.7910 ca         1 098      -0.154000
     20 C16         -1.5100    -4.1530    -1.2010 ca         1 098      -0.216000
     21 O18         -1.9910    -4.4740     1.1320 oh         1 098      -0.530100
     22 C19         -0.2150    -3.0710     0.5210 ca         1 098      -0.139000
     23 O21         -0.0980     0.1960     1.7720 o          1 098      -0.612100
     24 N22         -1.2020     0.2970    -0.2010 ns         1 098      -0.488900
     25 C23         -2.5340     0.3940     0.3300 c5         1 098       0.118000
     26 C27         -4.6650     1.1900    -0.3340 ca         1 098      -0.070300
     27 C29         -5.1780     3.3930    -1.1110 ca         1 098      -0.105000
     28 C30         -3.8400     3.7530    -0.9830 ca         1 098      -0.114000
     29 C31         -2.9030     2.8310    -0.5250 ca         1 098      -0.086000
     30 C32         -3.3300     1.5550    -0.2040 ca         1 098      -0.106300
     31 H5           1.8310     1.9900    -0.1870 h1         1 098       0.059700
     32 H7           4.6730     2.2760     0.3290 h1         1 098       0.038700
     33 H7A          3.8160     2.7990    -1.1140 h1         1 098       0.038700
     34 H8           5.3570     1.3930    -2.5340 hc         1 098       0.086700
     35 H10          7.4870     2.5920    -2.0630 hc         1 098       0.073200
     36 H10A         6.8800     3.0590    -0.4150 hc         1 098       0.073200
     37 H15         -0.9050    -3.7350    -3.2080 ha         1 098       0.118000
     38 H24         -3.2790    -1.6380     0.7090 h1         1 098       0.053700
     39 H26         -5.5640    -0.7960    -0.5300 hc         1 098       0.066200
     40 H26A        -5.2050    -0.2970     1.1170 hc         1 098       0.066200
     41 H28         -6.6410     1.8290    -0.8960 ha         1 098       0.116000
     42 HO1          1.5730     1.9530     3.9930 ho         1 098       0.441000
     43 HN2          1.5500     2.8930     1.7580 hn         1 098       0.331500
     44 HN6          3.9500     0.0110    -0.2800 hn         1 098       0.435000
     45 H9           6.6270     0.6330     0.1880 hc         1 098       0.073200
     46 H9A          7.2340     0.1550    -1.4590 hc         1 098       0.073200
     47 H11          1.0050     0.1050    -1.2980 hc         1 098       0.070700
     48 H12          1.9260    -1.6600     1.0150 hc         1 098       0.077700
     49 H12A         2.5450    -1.6610    -0.6310 hc         1 098       0.077700
     50 H14          0.9400    -2.2280    -2.5490 ha         1 098       0.120000
     51 H16         -2.3200    -4.8070    -1.5030 ha         1 098       0.118000
     52 HO18        -2.6870    -5.0260     0.7590 ho         1 098       0.466000
     53 H19         -0.0330    -2.8840     1.5730 ha         1 098       0.143000
     54 HN22        -1.1050     0.2680    -1.2040 hn         1 098       0.323500
     55 H23         -2.4500     0.4760     1.4170 h1         1 098       0.097700
     56 H29         -5.8960     4.1180    -1.4710 ha         1 098       0.113000
     57 H30         -3.5270     4.7550    -1.2460 ha         1 098       0.112000
     58 H31         -1.8600     3.1100    -0.4330 ha         1 098       0.111000
     59 O25         -3.2260    -1.2600    -1.3280 oh         1 098      -0.660000
     60 O1           2.3070     2.4080     3.5570 oh         1 098      -0.414100
     61 HO25        -2.4460    -1.8250    -1.3490 ho         1 098       0.450000
@<TRIPOS>BOND
     1     1    13 1   
     2     1    15 1   
     3     1    17 1   
     4     1    31 1   
     5     2     3 1   
     6     2    15 1   
     7     2    32 1   
     8     2    33 1   
     9     3     4 1   
    10     3    16 1   
    11     3    34 1   
    12     4    16 1   
    13     4    35 1   
    14     4    36 1   
    15     5    18 1   
    16     5    19 ar  
    17     5    22 ar  
    18     6    19 ar  
    19     6    20 ar  
    20     6    37 1   
    21     7    20 ar  
    22     7    21 1   
    23     7    22 ar  
    24     8    17 1   
    25     8    23 2   
    26     8    24 1   
    27     9    10 1   
    28     9    25 1   
    29     9    38 1   
    30     9    59 1   
    31    10    26 1   
    32    10    39 1   
    33    10    40 1   
    34    11    26 ar  
    35    11    27 ar  
    36    11    41 1   
    37    12    13 1   
    38    12    43 1   
    39    12    60 1   
    40    13    14 2   
    41    15    44 1   
    42    16    45 1   
    43    16    46 1   
    44    17    18 1   
    45    17    47 1   
    46    18    48 1   
    47    18    49 1   
    48    19    50 1   
    49    20    51 1   
    50    21    52 1   
    51    22    53 1   
    52    24    25 1   
    53    24    54 1   
    54    25    30 1   
    55    25    55 1   
    56    26    30 ar  
    57    27    28 ar  
    58    27    56 1   
    59    28    29 ar  
    60    28    57 1   
    61    29    30 ar  
    62    29    58 1   
    63    42    60 1   
    64    59    61 1   
@<TRIPOS>SUBSTRUCTURE
     1 098         1 TEMP              0 ****  ****    0 ROOT
