@<TRIPOS>MOLECULE
098
   61    64     1     0     0
SMALL
No Charge or Current Charge


@<TRIPOS>ATOM
      1 C5           2.2570     0.9600     0.3880 c3         1 098       0.113500
      2 C7           4.3220     2.0430    -0.5570 c3         1 098       0.186800
      3 C8           5.3990     1.8470    -1.6120 cx         1 098      -0.130700
      4 C10          6.7770     2.4440    -1.4390 cx         1 098      -0.130400
      5 C13          0.5190    -2.5330    -0.3530 ca         1 098      -0.054300
      6 C15         -0.6380    -3.6110    -2.2120 ca         1 098      -0.075000
      7 C17         -1.3090    -4.0920     0.0750 ca         1 098       0.132100
      8 C20         -0.1510     0.2020     0.6860 c          1 098       0.597100
      9 C24         -3.3300    -0.5890     0.2280 c5         1 098       0.155300
     10 C26         -4.8390    -0.1310     0.1280 c5         1 098      -0.033100
     11 C28         -5.6740     1.9850    -1.1440 ca         1 098      -0.094000
     12 N2           2.3290     1.7900     2.7560 ns         1 098      -0.370400
     13 C3           2.7640     0.8030     1.8730 c          1 098       0.578100
     14 O4           3.5350    -0.0850     2.2240 o          1 098      -0.574100
     15 N6           3.3650     0.9270    -0.6190 n7         1 098      -0.860400
     16 C9           6.5870     0.9460    -1.3570 cx         1 098      -0.130400
     17 C11          1.1800    -0.0880    -0.0240 c3         1 098      -0.126700
     18 C12          1.5890    -1.5770     0.1620 c3         1 098      -0.029100
     19 C14          0.3510    -2.7340    -1.7360 ca         1 098      -0.154000
     20 C16         -1.4680    -4.2910    -1.3040 ca         1 098      -0.216000
     21 O18         -2.1150    -4.7430     0.9570 oh         1 098      -0.530100
     22 C19         -0.3220    -3.2140     0.5490 ca         1 098      -0.139000
     23 O21         -0.2820     0.0990     1.8970 o          1 098      -0.612100
     24 N22         -1.1850     0.5760    -0.1490 ns         1 098      -0.488900
     25 C23         -2.5230     0.7790     0.4290 c5         1 098       0.118000
     26 C27         -4.6840     1.2390    -0.4850 ca         1 098      -0.070300
     27 C29         -5.3440     3.2590    -1.6470 ca         1 098      -0.105000
     28 C30         -4.0390     3.7700    -1.4820 ca         1 098      -0.114000
     29 C31         -3.0600     3.0080    -0.8140 ca         1 098      -0.086000
     30 C32         -3.4070     1.7370    -0.3260 ca         1 098      -0.106300
     31 H5           1.7730     1.9450     0.3260 h1         1 098       0.059700
     32 H7           4.7920     2.0970     0.4350 h1         1 098       0.038700
     33 H7A          3.8120     2.9990    -0.7370 h1         1 098       0.038700
     34 H8           4.9920     1.8480    -2.6210 hc         1 098       0.086700
     35 H10          7.2700     2.8450    -2.3210 hc         1 098       0.073200
     36 H10A         6.9930     2.9770    -0.5160 hc         1 098       0.073200
     37 H15         -0.7610    -3.7630    -3.2830 ha         1 098       0.118000
     38 H24         -3.1870    -1.2450     1.0980 h1         1 098       0.053700
     39 H26         -5.4450    -0.8110    -0.4810 hc         1 098       0.066200
     40 H26A        -5.3030    -0.0720     1.1180 hc         1 098       0.066200
     41 H28         -6.6790     1.5880    -1.2650 ha         1 098       0.116000
     42 HO1          2.1650     1.9590     4.6750 ho         1 098       0.441000
     43 HN2          1.8180     2.5970     2.4010 hn         1 098       0.331500
     44 HN6          3.8980     0.0590    -0.4790 hn         1 098       0.435000
     45 H9           6.6750     0.4780    -0.3790 hc         1 098       0.073200
     46 H9A          6.9510     0.3420    -2.1850 hc         1 098       0.073200
     47 H11          1.0060     0.0600    -1.0970 hc         1 098       0.070700
     48 H12          1.7860    -1.7800     1.2220 hc         1 098       0.077700
     49 H12A         2.5320    -1.7680    -0.3630 hc         1 098       0.077700
     50 H14          0.9920    -2.2120    -2.4440 ha         1 098       0.120000
     51 H16         -2.2320    -4.9680    -1.6810 ha         1 098       0.118000
     52 HO18        -2.7300    -5.3150     0.4490 ho         1 098       0.466000
     53 H19         -0.2120    -3.0650     1.6210 ha         1 098       0.143000
     54 HN22        -0.9950     0.6330    -1.1420 hn         1 098       0.323500
     55 H23         -2.5020     1.0690     1.4890 h1         1 098       0.097700
     56 H29         -6.0970     3.8520    -2.1620 ha         1 098       0.113000
     57 H30         -3.7880     4.7550    -1.8680 ha         1 098       0.112000
     58 H31         -2.0540     3.3980    -0.6780 ha         1 098       0.111000
     59 O25         -2.9610    -1.3090    -0.9610 oh         1 098      -0.660000
     60 O1           2.9370     1.9450     4.0610 oh         1 098      -0.414100
     61 HO25        -2.0830    -1.7110    -0.7890 ho         1 098       0.450000
@<TRIPOS>BOND
     1     1    13 1   
     2     1    15 1   
     3     1    17 1   
     4     1    31 1   
     5     2     3 1   
     6     2    15 1   
     7     2    32 1   
     8     2    33 1   
     9     3     4 1   
    10     3    16 1   
    11     3    34 1   
    12     4    16 1   
    13     4    35 1   
    14     4    36 1   
    15     5    18 1   
    16     5    19 ar  
    17     5    22 ar  
    18     6    19 ar  
    19     6    20 ar  
    20     6    37 1   
    21     7    20 ar  
    22     7    21 1   
    23     7    22 ar  
    24     8    17 1   
    25     8    23 2   
    26     8    24 1   
    27     9    10 1   
    28     9    25 1   
    29     9    38 1   
    30     9    59 1   
    31    10    26 1   
    32    10    39 1   
    33    10    40 1   
    34    11    26 ar  
    35    11    27 ar  
    36    11    41 1   
    37    12    13 1   
    38    12    43 1   
    39    12    60 1   
    40    13    14 2   
    41    15    44 1   
    42    16    45 1   
    43    16    46 1   
    44    17    18 1   
    45    17    47 1   
    46    18    48 1   
    47    18    49 1   
    48    19    50 1   
    49    20    51 1   
    50    21    52 1   
    51    22    53 1   
    52    24    25 1   
    53    24    54 1   
    54    25    30 1   
    55    25    55 1   
    56    26    30 ar  
    57    27    28 ar  
    58    27    56 1   
    59    28    29 ar  
    60    28    57 1   
    61    29    30 ar  
    62    29    58 1   
    63    42    60 1   
    64    59    61 1   
@<TRIPOS>SUBSTRUCTURE
     1 098         1 TEMP              0 ****  ****    0 ROOT
