@<TRIPOS>MOLECULE
099
   49    51     1     0     0
SMALL
bcc


@<TRIPOS>ATOM
      1 C4          -5.2440    -0.3560     1.0000 ca         1 099      -0.123000
      2 C5          -3.6260    -0.7550    -1.2570 ca         1 099      -0.071000
      3 C6           4.0110    -1.3180    -0.4470 ca         1 099      -0.175000
      4 C7           5.8890    -0.4460     0.7920 ca         1 099      -0.165000
      5 C8           4.1340     1.0280     0.0430 ca         1 099      -0.227000
      6 C10          2.1420     0.1790    -1.2290 c3         1 099      -0.029100
      7 C13          5.3430     0.8340     0.7030 ca         1 099       0.140100
      8 C15         -3.5360     0.4120    -0.5160 ca         1 099      -0.126300
      9 C20          1.0200     0.5470    -0.2530 c3         1 099      -0.123700
     10 C1          -5.3450    -1.5250     0.2530 ca         1 099      -0.123000
     11 C2          -4.5410    -1.7250    -0.8660 ca         1 099      -0.129000
     12 C3           5.2180    -1.5100     0.2140 ca         1 099      -0.094000
     13 C9          -4.0090     1.9320     1.2470 c5         1 099      -0.073100
     14 C11          0.8580    -0.4860     0.8690 c3         1 099      -0.157400
     15 C12          3.4580    -0.0440    -0.5350 ca         1 099      -0.043300
     16 C14         -4.3300     0.6110     0.6100 ca         1 099      -0.087300
     17 C16          0.4820    -1.8540     0.3480 c          1 099       0.665100
     18 C18         -3.3090     2.6820     0.1000 c5         1 099       0.125100
     19 C19         -2.6070     1.5830    -0.7240 c5         1 099       0.175000
     20 N21          1.1870    -2.8550     0.9130 ns         1 099      -0.455400
     21 N22         -1.2770     1.3040    -0.2260 ns         1 099      -0.553900
     22 O24         -2.4000     3.6720     0.4890 oh         1 099      -0.585800
     23 O25          1.0520    -4.1270     0.4440 oh         1 099      -0.389100
     24 O26         -0.4060    -2.0270    -0.4660 o          1 099      -0.554100
     25 H4          -5.8720    -0.2110     1.8710 ha         1 099       0.129000
     26 H5          -2.9940    -0.9060    -2.1220 ha         1 099       0.157000
     27 H6           3.5050    -2.1580    -0.9070 ha         1 099       0.142000
     28 H7           6.8300    -0.5980     1.3060 ha         1 099       0.147000
     29 H8           3.7170     2.0280    -0.0300 ha         1 099       0.131000
     30 H10          1.8720    -0.7160    -1.7920 hc         1 099       0.075200
     31 H10A         2.2490     0.9830    -1.9600 hc         1 099       0.075200
     32 H20          1.2920     1.4850     0.2430 hc         1 099       0.063700
     33 H1          -6.0550    -2.2880     0.5450 ha         1 099       0.128000
     34 H2          -4.6310    -2.6420    -1.4340 ha         1 099       0.134000
     35 H3           5.6440    -2.5030     0.2790 ha         1 099       0.134000
     36 H9          -4.8860     2.4620     1.6210 hc         1 099       0.055700
     37 H9A         -3.3260     1.7980     2.0940 hc         1 099       0.055700
     38 H11          1.7760    -0.5160     1.4580 hc         1 099       0.064200
     39 H11A         0.0770    -0.1800     1.5710 hc         1 099       0.064200
     40 H18         -4.0940     3.0950    -0.5480 h1         1 099       0.045700
     41 H19         -2.5200     1.8670    -1.7720 h1         1 099       0.097700
     42 HN21         2.0440    -2.6830     1.4190 hn         1 099       0.335500
     43 HN22        -1.1190     1.3880     0.7650 hn         1 099       0.312500
     44 HO23         5.5580     2.6810     1.1450 ho         1 099       0.426000
     45 HO24        -2.8820     4.3560     0.9650 ho         1 099       0.407000
     46 HO25         0.4480    -4.5740     1.0500 ho         1 099       0.407000
     47 C17         -0.2850     0.8240    -0.9980 c          1 099       0.684100
     48 O23          6.0280     1.8490     1.2700 oh         1 099      -0.495100
     49 O27         -0.3970     0.6850    -2.2070 o          1 099      -0.594100
@<TRIPOS>BOND
     1     1    10 ar  
     2     1    16 ar  
     3     1    25 1   
     4     2     8 ar  
     5     2    11 ar  
     6     2    26 1   
     7     3    12 ar  
     8     3    15 ar  
     9     3    27 1   
    10     4     7 ar  
    11     4    12 ar  
    12     4    28 1   
    13     5     7 ar  
    14     5    15 ar  
    15     5    29 1   
    16     6     9 1   
    17     6    15 1   
    18     6    30 1   
    19     6    31 1   
    20     7    48 1   
    21     8    16 ar  
    22     8    19 1   
    23     9    14 1   
    24     9    32 1   
    25     9    47 1   
    26    10    11 ar  
    27    10    33 1   
    28    11    34 1   
    29    12    35 1   
    30    13    16 1   
    31    13    18 1   
    32    13    36 1   
    33    13    37 1   
    34    14    17 1   
    35    14    38 1   
    36    14    39 1   
    37    17    20 1   
    38    17    24 2   
    39    18    19 1   
    40    18    22 1   
    41    18    40 1   
    42    19    21 1   
    43    19    41 1   
    44    20    23 1   
    45    20    42 1   
    46    21    43 1   
    47    21    47 1   
    48    22    45 1   
    49    23    46 1   
    50    44    48 1   
    51    47    49 2   
@<TRIPOS>SUBSTRUCTURE
     1 099         1 TEMP              0 ****  ****    0 ROOT
