@<TRIPOS>MOLECULE
099
   49    51     1     0     0
SMALL
No Charge or Current Charge


@<TRIPOS>ATOM
      1 C4          -5.6540     0.6560     1.0750 ca         1 099      -0.105000
      2 C5          -4.1490    -0.7070    -0.8890 ca         1 099      -0.053000
      3 C6           4.3450    -0.8510    -0.7420 ca         1 099      -0.157000
      4 C7           5.8620    -0.1900     1.0400 ca         1 099      -0.147000
      5 C8           3.6370     0.7850     0.9090 ca         1 099      -0.209000
      6 C10          1.9970     0.1120    -0.9350 c3         1 099      -0.029100
      7 C13          4.8860     0.6810     1.5430 ca         1 099       0.140100
      8 C15         -3.7900     0.5860    -0.4730 ca         1 099      -0.126300
      9 C20          0.7700    -0.1100    -0.0030 c3         1 099      -0.123700
     10 C1          -6.0300    -0.6390     0.6690 ca         1 099      -0.105000
     11 C2          -5.2790    -1.3200    -0.3120 ca         1 099      -0.111000
     12 C3           5.5940    -0.9560    -0.1070 ca         1 099      -0.076000
     13 C9          -3.9670     2.6140     0.7970 c5         1 099      -0.073100
     14 C11          0.7940    -1.4540     0.7980 c3         1 099      -0.157400
     15 C12          3.3520     0.0100    -0.2340 ca         1 099      -0.043300
     16 C14         -4.5280     1.2520     0.4860 ca         1 099      -0.087300
     17 C16          1.0800    -2.7080    -0.0460 c          1 099       0.598100
     18 C18         -3.0440     2.8580    -0.4610 c5         1 099       0.148300
     19 C19         -2.6200     1.4000    -0.9660 c5         1 099       0.175000
     20 N21          2.3640    -3.2240     0.0880 ns         1 099      -0.388400
     21 N22         -1.3580     1.0990    -0.2770 ns         1 099      -0.486900
     22 O24         -1.9490     3.7330    -0.1460 oh         1 099      -0.648000
     23 O25          2.8500    -4.2550    -0.8060 oh         1 099      -0.428100
     24 O26          0.2240    -3.2560    -0.7260 o          1 099      -0.554100
     25 H4          -6.2270     1.1850     1.8330 ha         1 099       0.111000
     26 H5          -3.5640    -1.2290    -1.6430 ha         1 099       0.139000
     27 H6           4.1510    -1.4460    -1.6320 ha         1 099       0.124000
     28 H7           6.8280    -0.2690     1.5330 ha         1 099       0.129000
     29 H8           2.8900     1.4710     1.3000 ha         1 099       0.113000
     30 H10          1.9460    -0.6000    -1.7680 hc         1 099       0.075200
     31 H10A         1.9110     1.1050    -1.3940 hc         1 099       0.075200
     32 H20          0.7970     0.6770     0.7600 hc         1 099       0.063700
     33 H1          -6.9010    -1.1160     1.1140 ha         1 099       0.110000
     34 H2          -5.5700    -2.3210    -0.6220 ha         1 099       0.116000
     35 H3           6.3530    -1.6270    -0.5030 ha         1 099       0.116000
     36 H9          -4.7410     3.3830     0.8950 hc         1 099       0.055700
     37 H9A         -3.3920     2.5990     1.7300 hc         1 099       0.055700
     38 H11          1.5750    -1.3600     1.5620 hc         1 099       0.064200
     39 H11A        -0.1760    -1.5790     1.2940 hc         1 099       0.064200
     40 H18         -3.6580     3.3160    -1.2490 h1         1 099       0.045700
     41 H19         -2.5320     1.3720    -2.0610 h1         1 099       0.097700
     42 HN21         3.0760    -2.6530     0.5410 hn         1 099       0.335500
     43 HN22        -1.0140     1.6470     0.5000 hn         1 099       0.312500
     44 HO23         4.3660     1.9760     2.8500 ho         1 099       0.465000
     45 HO24        -2.3380     4.6030     0.0900 ho         1 099       0.446000
     46 HO25         3.2400    -4.9250    -0.1970 ho         1 099       0.446000
     47 C17         -0.5560     0.0940    -0.7730 c          1 099       0.617100
     48 O23          5.1540     1.4290     2.6500 oh         1 099      -0.534100
     49 O27         -0.8580    -0.5660    -1.7580 o          1 099      -0.594100
@<TRIPOS>BOND
     1     1    10 ar  
     2     1    16 ar  
     3     1    25 1   
     4     2     8 ar  
     5     2    11 ar  
     6     2    26 1   
     7     3    12 ar  
     8     3    15 ar  
     9     3    27 1   
    10     4     7 ar  
    11     4    12 ar  
    12     4    28 1   
    13     5     7 ar  
    14     5    15 ar  
    15     5    29 1   
    16     6     9 1   
    17     6    15 1   
    18     6    30 1   
    19     6    31 1   
    20     7    48 1   
    21     8    16 ar  
    22     8    19 1   
    23     9    14 1   
    24     9    32 1   
    25     9    47 1   
    26    10    11 ar  
    27    10    33 1   
    28    11    34 1   
    29    12    35 1   
    30    13    16 1   
    31    13    18 1   
    32    13    36 1   
    33    13    37 1   
    34    14    17 1   
    35    14    38 1   
    36    14    39 1   
    37    17    20 1   
    38    17    24 2   
    39    18    19 1   
    40    18    22 1   
    41    18    40 1   
    42    19    21 1   
    43    19    41 1   
    44    20    23 1   
    45    20    42 1   
    46    21    43 1   
    47    21    47 1   
    48    22    45 1   
    49    23    46 1   
    50    44    48 1   
    51    47    49 2   
@<TRIPOS>SUBSTRUCTURE
     1 099         1 TEMP              0 ****  ****    0 ROOT
