@<TRIPOS>MOLECULE
09A
   42    45     1     0     0
SMALL
abcg2


@<TRIPOS>ATOM
      1 C22          6.1410     1.8510    -0.5080 ca         1 09A      -0.098000
      2 C5          -4.0500     2.9580     0.9750 ca         1 09A      -0.140000
      3 C21          5.3780     1.5180    -1.6200 ca         1 09A      -0.115000
      4 C23          6.0230     1.1070     0.6590 ca         1 09A      -0.115000
      5 C8          -4.9590     2.8430    -0.0690 ca         1 09A      -0.073000
      6 C3          -3.0680     1.9850     1.1640 ca         1 09A      -0.054000
      7 C20          4.4960     0.4470    -1.5600 ca         1 09A      -0.085500
      8 C24          5.1440     0.0350     0.7140 ca         1 09A      -0.085500
      9 C6          -4.9160     1.7640    -0.9510 ca         1 09A      -0.144000
     10 C1          -3.0140     0.9140     0.2970 ca         1 09A      -0.132300
     11 C19          4.3730    -0.3030    -0.3950 ca         1 09A      -0.099300
     12 C17         -3.9340     0.8140    -0.7460 ca         1 09A      -0.027000
     13 C14         -2.6010    -1.0200    -0.9820 c          1 09A       0.564000
     14 C9           1.2070    -1.7810     0.4880 c          1 09A       0.594100
     15 C4          -0.5950    -0.0010     0.1890 c5         1 09A      -0.071400
     16 C13         -2.2200    -1.2150     1.4920 c5         1 09A       0.168800
     17 C7           0.0350    -1.0810     1.1250 c5         1 09A       0.096500
     18 C2          -2.1090    -0.2760     0.2560 c5         1 09A      -0.136700
     19 C18          3.4050    -1.4420    -0.3240 c3         1 09A       0.213900
     20 N16         -3.6700    -0.3400    -1.4750 ns         1 09A      -0.144000
     21 N10         -1.0130    -2.0060     1.5060 n7         1 09A      -0.820400
     22 O12          1.2310    -2.9440     0.1750 o          1 09A      -0.470000
     23 O11          2.2100    -0.9380     0.3020 os         1 09A      -0.446100
     24 H1           6.8290     2.6850    -0.5520 ha         1 09A       0.113000
     25 H2          -4.1020     3.8070     1.6430 ha         1 09A       0.119000
     26 H3           5.4700     2.0910    -2.5330 ha         1 09A       0.114500
     27 H4           6.6200     1.3600     1.5260 ha         1 09A       0.114500
     28 H5          -5.7150     3.6050    -0.2060 ha         1 09A       0.116000
     29 H6          -2.3580     2.0750     1.9770 ha         1 09A       0.120000
     30 H7           3.9020     0.1900    -2.4290 ha         1 09A       0.115000
     31 H8           5.0600    -0.5460     1.6250 ha         1 09A       0.115000
     32 H9          -5.6250     1.6800    -1.7630 ha         1 09A       0.123000
     33 H10         -0.3680     1.0000     0.5550 hc         1 09A       0.067700
     34 H11         -0.2240    -0.0570    -0.8340 hc         1 09A       0.067700
     35 H12         -2.2690    -0.5930     2.3900 h1         1 09A       0.067200
     36 H13         -3.1100    -1.8440     1.4790 h1         1 09A       0.067200
     37 H14          0.4000    -0.5700     2.0220 h1         1 09A       0.090700
     38 H15          3.1680    -1.8220    -1.3190 h1         1 09A       0.058200
     39 H16          3.8070    -2.2660     0.2700 h1         1 09A       0.058200
     40 H17         -4.1830    -0.6320    -2.2930 hn         1 09A       0.175000
     41 H18         -1.0860    -2.7400     0.8100 hn         1 09A       0.446000
     42 O15         -2.1360    -2.0460    -1.4390 o          1 09A      -0.524000
@<TRIPOS>BOND
     1     1     3 ar  
     2     1     4 ar  
     3     1    24 1   
     4     2     5 ar  
     5     2     6 ar  
     6     2    25 1   
     7     3     7 ar  
     8     3    26 1   
     9     4     8 ar  
    10     4    27 1   
    11     5     9 ar  
    12     5    28 1   
    13     6    10 ar  
    14     6    29 1   
    15     7    11 ar  
    16     7    30 1   
    17     8    11 ar  
    18     8    31 1   
    19     9    12 ar  
    20     9    32 1   
    21    10    12 ar  
    22    10    18 1   
    23    11    19 1   
    24    12    20 1   
    25    13    18 1   
    26    13    20 1   
    27    13    42 2   
    28    14    17 1   
    29    14    22 2   
    30    14    23 1   
    31    15    17 1   
    32    15    18 1   
    33    15    33 1   
    34    15    34 1   
    35    16    18 1   
    36    16    21 1   
    37    16    35 1   
    38    16    36 1   
    39    17    21 1   
    40    17    37 1   
    41    19    23 1   
    42    19    38 1   
    43    19    39 1   
    44    20    40 1   
    45    21    41 1   
@<TRIPOS>SUBSTRUCTURE
     1 09A         1 TEMP              0 ****  ****    0 ROOT
