@<TRIPOS>MOLECULE
09A
   42    45     1     0     0
SMALL
No Charge or Current Charge


@<TRIPOS>ATOM
      1 C22          6.1920     1.9600    -0.4840 ca         1 09A      -0.098000
      2 C5          -3.8700     3.0160     0.8900 ca         1 09A      -0.140000
      3 C21          5.2630     1.7440    -1.5160 ca         1 09A      -0.115000
      4 C23          6.2330     1.0860     0.6160 ca         1 09A      -0.115000
      5 C8          -4.8030     2.9570    -0.1740 ca         1 09A      -0.073000
      6 C3          -2.9710     1.9520     1.1190 ca         1 09A      -0.054000
      7 C20          4.3760     0.6550    -1.4500 ca         1 09A      -0.085500
      8 C24          5.3460    -0.0030     0.6830 ca         1 09A      -0.085500
      9 C6          -4.8470     1.8290    -1.0200 ca         1 09A      -0.144000
     10 C1          -3.0280     0.8390     0.2650 ca         1 09A      -0.132300
     11 C19          4.4140    -0.2260    -0.3500 ca         1 09A      -0.099300
     12 C17         -3.9430     0.7930    -0.7670 ca         1 09A      -0.027000
     13 C14         -2.7910    -1.2630    -0.9510 c          1 09A       0.564000
     14 C9           1.2070    -1.8550     0.4640 c          1 09A       0.594100
     15 C4          -0.6790    -0.1460     0.1240 c5         1 09A      -0.071400
     16 C13         -2.3420    -1.2020     1.5940 c5         1 09A       0.168800
     17 C7          -0.0370    -1.1630     1.1290 c5         1 09A       0.096500
     18 C2          -2.2050    -0.4480     0.2550 c5         1 09A      -0.136700
     19 C18          3.4530    -1.4040    -0.2790 c3         1 09A       0.213900
     20 N16         -3.7720    -0.4190    -1.4330 ns         1 09A      -0.144000
     21 N10         -1.1560    -2.0820     1.5480 n7         1 09A      -0.820400
     22 O12          1.2900    -3.0330     0.1350 o          1 09A      -0.470000
     23 O11          2.2270    -0.9490     0.3150 os         1 09A      -0.446100
     24 H1           6.8780     2.8030    -0.5360 ha         1 09A       0.113000
     25 H2          -3.8460     3.8900     1.5370 ha         1 09A       0.119000
     26 H3           5.2290     2.4210    -2.3670 ha         1 09A       0.114500
     27 H4           6.9500     1.2530     1.4160 ha         1 09A       0.114500
     28 H5          -5.4910     3.7840    -0.3380 ha         1 09A       0.116000
     29 H6          -2.2530     1.9960     1.9360 ha         1 09A       0.120000
     30 H7           3.6580     0.4970    -2.2510 ha         1 09A       0.115000
     31 H8           5.3830    -0.6730     1.5400 ha         1 09A       0.115000
     32 H9          -5.5590     1.7690    -1.8400 ha         1 09A       0.123000
     33 H10         -0.4240     0.8820     0.4060 hc         1 09A       0.067700
     34 H11         -0.3280    -0.2840    -0.9060 hc         1 09A       0.067700
     35 H12         -2.2840    -0.5170     2.4530 h1         1 09A       0.067200
     36 H13         -3.2830    -1.7660     1.6720 h1         1 09A       0.067200
     37 H14          0.3410    -0.6150     2.0040 h1         1 09A       0.090700
     38 H15          3.2760    -1.7930    -1.2910 h1         1 09A       0.058200
     39 H16          3.9010    -2.2100     0.3180 h1         1 09A       0.058200
     40 H17         -4.3420    -0.6700    -2.2300 hn         1 09A       0.175000
     41 H18         -1.3010    -2.7740     0.7970 hn         1 09A       0.446000
     42 O15         -2.4880    -2.3650    -1.3910 o          1 09A      -0.524000
@<TRIPOS>BOND
     1     1     3 ar  
     2     1     4 ar  
     3     1    24 1   
     4     2     5 ar  
     5     2     6 ar  
     6     2    25 1   
     7     3     7 ar  
     8     3    26 1   
     9     4     8 ar  
    10     4    27 1   
    11     5     9 ar  
    12     5    28 1   
    13     6    10 ar  
    14     6    29 1   
    15     7    11 ar  
    16     7    30 1   
    17     8    11 ar  
    18     8    31 1   
    19     9    12 ar  
    20     9    32 1   
    21    10    12 ar  
    22    10    18 1   
    23    11    19 1   
    24    12    20 1   
    25    13    18 1   
    26    13    20 1   
    27    13    42 2   
    28    14    17 1   
    29    14    22 2   
    30    14    23 1   
    31    15    17 1   
    32    15    18 1   
    33    15    33 1   
    34    15    34 1   
    35    16    18 1   
    36    16    21 1   
    37    16    35 1   
    38    16    36 1   
    39    17    21 1   
    40    17    37 1   
    41    19    23 1   
    42    19    38 1   
    43    19    39 1   
    44    20    40 1   
    45    21    41 1   
@<TRIPOS>SUBSTRUCTURE
     1 09A         1 TEMP              0 ****  ****    0 ROOT
