@<TRIPOS>MOLECULE
09B
   43    46     1     0     0
SMALL
abcg2


@<TRIPOS>ATOM
      1 C13         -4.3650     3.2020     1.0840 ca         1 09B      -0.139000
      2 C14         -5.1330     3.2790    -0.0710 ca         1 09B      -0.073000
      3 C2           5.6160    -0.1490     0.7380 ca         1 09B      -0.076500
      4 C3           4.7170     0.8500    -1.2770 ca         1 09B      -0.076500
      5 C12         -3.5140     2.1160     1.2930 ca         1 09B      -0.054000
      6 C5           4.6020    -1.0900     0.7120 ca         1 09B      -0.091000
      7 C6           3.7100    -0.0990    -1.2870 ca         1 09B      -0.091000
      8 C15         -5.0770     2.2840    -1.0450 ca         1 09B      -0.143000
      9 C1           5.6710     0.8230    -0.2600 ca         1 09B      -0.007000
     10 C11         -3.4500     1.1250     0.3360 ca         1 09B      -0.133300
     11 C8           3.6440    -1.0750    -0.2970 ca         1 09B      -0.075300
     12 C10         -4.2270     1.2180    -0.8170 ca         1 09B      -0.027000
     13 C18         -3.0650    -0.7270    -1.0680 c          1 09B       0.564000
     14 C24          0.3030    -2.1500     0.4890 c          1 09B       0.591100
     15 C21         -1.1480    -0.0490     0.4420 c5         1 09B      -0.069400
     16 C20         -3.0340    -1.1650     1.4110 c5         1 09B       0.170800
     17 C22         -0.7450    -1.3450     1.2150 c5         1 09B       0.102500
     18 C16         -2.6730    -0.1520     0.2910 c5         1 09B      -0.135700
     19 C9           2.5310    -2.0770    -0.3010 c3         1 09B       0.208900
     20 N7           7.5540     2.5860    -0.2210 n1         1 09B      -0.447000
     21 N17         -3.9840     0.1090    -1.6190 ns         1 09B      -0.143000
     22 N19         -1.9480    -2.1170     1.4550 n7         1 09B      -0.826400
     23 O23         -2.6420    -1.7510    -1.5660 o          1 09B      -0.523000
     24 O26          1.4330    -1.4630     0.3900 os         1 09B      -0.448100
     25 H1          -4.4260     3.9880     1.8240 ha         1 09B       0.119000
     26 H2          -5.7890     4.1270    -0.2220 ha         1 09B       0.117000
     27 H3           6.3600    -0.1670     1.5230 ha         1 09B       0.128500
     28 H4           4.7660     1.6040    -2.0500 ha         1 09B       0.128500
     29 H5          -2.9120     2.0600     2.1920 ha         1 09B       0.120000
     30 H6           4.5610    -1.8460     1.4860 ha         1 09B       0.123000
     31 H7           2.9730    -0.0800    -2.0800 ha         1 09B       0.123000
     32 H8          -5.6760     2.3480    -1.9430 ha         1 09B       0.123000
     33 H9          -0.8870     0.8310     1.0290 hc         1 09B       0.067200
     34 H10         -0.6470     0.0570    -0.5210 hc         1 09B       0.067200
     35 H11         -3.0950    -0.6170     2.3560 h1         1 09B       0.067200
     36 H12         -3.9920    -1.6620     1.2580 h1         1 09B       0.067200
     37 H13         -0.3090    -1.0400     2.1720 h1         1 09B       0.091700
     38 H14          2.2350    -2.3300    -1.3200 h1         1 09B       0.061700
     39 H15          2.8270    -2.9950     0.2100 h1         1 09B       0.061700
     40 H16         -4.4050    -0.0480    -2.5230 hn         1 09B       0.175000
     41 H17         -2.0680    -2.7990     0.7150 hn         1 09B       0.447000
     42 O25          0.1510    -3.2620     0.0530 o          1 09B      -0.465000
     43 C4           6.7150     1.7970    -0.2410 cg         1 09B       0.320000
@<TRIPOS>BOND
     1     1     2 ar  
     2     1     5 ar  
     3     1    25 1   
     4     2     8 ar  
     5     2    26 1   
     6     3     6 ar  
     7     3     9 ar  
     8     3    27 1   
     9     4     7 ar  
    10     4     9 ar  
    11     4    28 1   
    12     5    10 ar  
    13     5    29 1   
    14     6    11 ar  
    15     6    30 1   
    16     7    11 ar  
    17     7    31 1   
    18     8    12 ar  
    19     8    32 1   
    20     9    43 1   
    21    10    12 ar  
    22    10    18 1   
    23    11    19 1   
    24    12    21 1   
    25    13    18 1   
    26    13    21 1   
    27    13    23 2   
    28    14    17 1   
    29    14    24 1   
    30    14    42 2   
    31    15    17 1   
    32    15    18 1   
    33    15    33 1   
    34    15    34 1   
    35    16    18 1   
    36    16    22 1   
    37    16    35 1   
    38    16    36 1   
    39    17    22 1   
    40    17    37 1   
    41    19    24 1   
    42    19    38 1   
    43    19    39 1   
    44    20    43 3   
    45    21    40 1   
    46    22    41 1   
@<TRIPOS>SUBSTRUCTURE
     1 09B         1 TEMP              0 ****  ****    0 ROOT
