@<TRIPOS>MOLECULE
09B
   43    46     1     0     0
SMALL
No Charge or Current Charge


@<TRIPOS>ATOM
      1 C13         -4.0450     3.2610     1.0660 ca         1 09B      -0.139000
      2 C14         -4.9390     3.4100    -0.0220 ca         1 09B      -0.073000
      3 C2           5.6930    -0.0020     0.8580 ca         1 09B      -0.076500
      4 C3           4.8670     0.9310    -1.2330 ca         1 09B      -0.076500
      5 C12         -3.3100     2.0680     1.2370 ca         1 09B      -0.054000
      6 C5           4.6700    -0.9670     0.8300 ca         1 09B      -0.091000
      7 C6           3.8450    -0.0350    -1.2590 ca         1 09B      -0.091000
      8 C15         -5.1070     2.3640    -0.9530 ca         1 09B      -0.143000
      9 C1           5.7950     0.9510    -0.1740 ca         1 09B      -0.007000
     10 C11         -3.4900     1.0380     0.2990 ca         1 09B      -0.133300
     11 C8           3.7420    -0.9910    -0.2290 ca         1 09B      -0.075300
     12 C10         -4.3640     1.1950    -0.7570 ca         1 09B      -0.027000
     13 C18         -3.5020    -0.9830    -1.0670 c          1 09B       0.564000
     14 C24          0.3260    -2.2270     0.4070 c          1 09B       0.591100
     15 C21         -1.2960    -0.2540     0.1430 c5         1 09B      -0.069400
     16 C20         -3.1410    -1.1700     1.4860 c5         1 09B       0.170800
     17 C22         -0.8360    -1.4180     1.0870 c5         1 09B       0.102500
     18 C16         -2.8530    -0.3480     0.2120 c5         1 09B      -0.135700
     19 C9           2.6330    -2.0330    -0.2580 c3         1 09B       0.208900
     20 N7           7.6940     2.7340    -0.1280 n1         1 09B      -0.447000
     21 N17         -4.3380     0.0220    -1.5080 ns         1 09B      -0.143000
     22 N19         -2.0860    -2.2010     1.4050 n7         1 09B      -0.826400
     23 O23         -3.3380    -2.0830    -1.5820 o          1 09B      -0.523000
     24 O26          1.4600    -1.4580     0.3420 os         1 09B      -0.448100
     25 H1          -3.9240     4.0740     1.7780 ha         1 09B       0.119000
     26 H2          -5.4990     4.3360    -0.1410 ha         1 09B       0.117000
     27 H3           6.4030     0.0040     1.6830 ha         1 09B       0.128500
     28 H4           4.9340     1.6630    -2.0350 ha         1 09B       0.128500
     29 H5          -2.6230     1.9520     2.0720 ha         1 09B       0.120000
     30 H6           4.5990    -1.6960     1.6350 ha         1 09B       0.123000
     31 H7           3.1310    -0.0390    -2.0800 ha         1 09B       0.123000
     32 H8          -5.7900     2.4630    -1.7940 ha         1 09B       0.123000
     33 H9          -0.9120     0.7060     0.5060 hc         1 09B       0.067200
     34 H10         -0.9300    -0.3690    -0.8850 hc         1 09B       0.067200
     35 H11         -3.0210    -0.5620     2.3950 h1         1 09B       0.067200
     36 H12         -4.1530    -1.6010     1.4960 h1         1 09B       0.067200
     37 H13         -0.4210    -0.9910     2.0110 h1         1 09B       0.091700
     38 H14          2.4360    -2.3270    -1.2980 h1         1 09B       0.061700
     39 H15          2.9530    -2.9290     0.2910 h1         1 09B       0.061700
     40 H16         -4.9080    -0.0880    -2.3370 hn         1 09B       0.175000
     41 H17         -2.2960    -2.8100     0.6000 hn         1 09B       0.447000
     42 O25          0.2600    -3.3790    -0.0090 o          1 09B      -0.465000
     43 C4           6.8400     1.9380    -0.1460 cg         1 09B       0.320000
@<TRIPOS>BOND
     1     1     2 ar  
     2     1     5 ar  
     3     1    25 1   
     4     2     8 ar  
     5     2    26 1   
     6     3     6 ar  
     7     3     9 ar  
     8     3    27 1   
     9     4     7 ar  
    10     4     9 ar  
    11     4    28 1   
    12     5    10 ar  
    13     5    29 1   
    14     6    11 ar  
    15     6    30 1   
    16     7    11 ar  
    17     7    31 1   
    18     8    12 ar  
    19     8    32 1   
    20     9    43 1   
    21    10    12 ar  
    22    10    18 1   
    23    11    19 1   
    24    12    21 1   
    25    13    18 1   
    26    13    21 1   
    27    13    23 2   
    28    14    17 1   
    29    14    24 1   
    30    14    42 2   
    31    15    17 1   
    32    15    18 1   
    33    15    33 1   
    34    15    34 1   
    35    16    18 1   
    36    16    22 1   
    37    16    35 1   
    38    16    36 1   
    39    17    22 1   
    40    17    37 1   
    41    19    24 1   
    42    19    38 1   
    43    19    39 1   
    44    20    43 3   
    45    21    40 1   
    46    22    41 1   
@<TRIPOS>SUBSTRUCTURE
     1 09B         1 TEMP              0 ****  ****    0 ROOT
