@<TRIPOS>MOLECULE
09C
   43    47     1     0     0
SMALL
No Charge or Current Charge


@<TRIPOS>ATOM
      1 C1           1.0100     2.1130    -1.8370 c          1 09C       0.530000
      2 N1           0.0970    -0.0350    -0.7230 n7         1 09C      -0.843400
      3 O1           1.9160     2.8300    -2.2380 o          1 09C      -0.549000
      4 C2           1.2320     0.9440    -0.7990 c6         1 09C       0.168700
      5 N2          -0.2760     2.3160    -2.3000 ns         1 09C      -0.518900
      6 N3          -3.5220    -2.2400    -0.4190 na         1 09C      -0.219700
      7 N4           4.0740    -1.0270    -2.0960 na         1 09C      -0.218700
      8 C3          -5.6660     1.1120     0.7580 ca         1 09C      -0.114000
      9 C4           5.0050    -0.0590     1.8310 ca         1 09C      -0.120000
     10 C5          -4.3090     1.1590     0.3720 ca         1 09C      -0.065000
     11 C6           3.8040     0.3350     1.2040 ca         1 09C      -0.041000
     12 C7          -2.2460    -1.7070    -0.7010 cc         1 09C      -0.125100
     13 C8           2.8060    -0.4310    -2.2690 cc         1 09C      -0.145100
     14 C9          -5.7210    -1.3130     0.3700 ca         1 09C      -0.097000
     15 C10          5.7370    -1.1980    -0.2190 ca         1 09C      -0.104000
     16 C11         -1.4630     1.5410    -1.8810 c6         1 09C       0.077000
     17 C12         -1.2140     0.6490    -0.6280 c6         1 09C       0.230700
     18 C13         -6.3670    -0.1190     0.7560 ca         1 09C       0.001100
     19 C14          5.9660    -0.8210     1.1220 ca         1 09C       0.006100
     20 C15         -2.3540    -0.3390    -0.4480 cd         1 09C      -0.151400
     21 C16          2.5170     0.1750    -1.0470 cd         1 09C      -0.127400
     22 C17         -4.3750    -1.2320    -0.0070 ca         1 09C      -0.050200
     23 C18          4.5350    -0.7920    -0.8130 ca         1 09C      -0.049200
     24 C19         -3.6990    -0.0450    -0.0070 ca         1 09C      -0.083800
     25 C20          3.6090    -0.0550    -0.1290 ca         1 09C      -0.067800
     26 HA           1.3050     1.4580     0.1710 h1         1 09C       0.091700
     27 HAE          5.1930     0.2240     2.8640 ha         1 09C       0.128000
     28 HAF         -3.7590     2.0970     0.3710 ha         1 09C       0.117000
     29 HAG          3.0570     0.9180     1.7370 ha         1 09C       0.125000
     30 HAH         -1.4090    -2.3130    -1.0360 h4         1 09C       0.222000
     31 HAI          2.2450    -0.4800    -3.1980 h4         1 09C       0.208000
     32 HAJ         -6.2520    -2.2620     0.3670 ha         1 09C       0.131000
     33 HAK          6.4690    -1.7840    -0.7700 ha         1 09C       0.128000
     34 H1AL        -2.2930     2.2350    -1.6850 h1         1 09C       0.048700
     35 H2AL        -1.7600     0.9020    -2.7250 h1         1 09C       0.048700
     36 H12          0.0970    -0.5820    -1.5870 hn         1 09C       0.406000
     37 H13         -0.3970     3.0670    -2.9690 hn         1 09C       0.317500
     38 H14         -3.7790    -3.2190    -0.5030 hn         1 09C       0.355000
     39 H15          4.5770    -1.5520    -2.8050 hn         1 09C       0.352000
     40 H16         -1.1940     1.3090     0.2540 h1         1 09C       0.079700
     41 HAD         -6.1750     2.0250     1.0580 ha         1 09C       0.129000
     42 Br1         -8.2050    -0.1630     1.2820 br         1 09C      -0.102100
     43 Br2          7.5870    -1.3460     1.9900 br         1 09C      -0.110100
@<TRIPOS>BOND
     1     1     3 2   
     2     1     4 1   
     3     1     5 1   
     4     2     4 1   
     5     2    17 1   
     6     2    36 1   
     7     4    21 1   
     8     4    26 1   
     9     5    16 1   
    10     5    37 1   
    11     6    12 1   
    12     6    22 1   
    13     6    38 1   
    14     7    13 1   
    15     7    23 1   
    16     7    39 1   
    17     8    10 ar  
    18     8    18 ar  
    19     8    41 1   
    20     9    11 ar  
    21     9    19 ar  
    22     9    27 1   
    23    10    24 ar  
    24    10    28 1   
    25    11    25 ar  
    26    11    29 1   
    27    12    20 2   
    28    12    30 1   
    29    13    21 2   
    30    13    31 1   
    31    14    18 ar  
    32    14    22 ar  
    33    14    32 1   
    34    15    19 ar  
    35    15    23 ar  
    36    15    33 1   
    37    16    17 1   
    38    16    34 1   
    39    16    35 1   
    40    17    20 1   
    41    17    40 1   
    42    18    42 1   
    43    19    43 1   
    44    20    24 1   
    45    21    25 1   
    46    22    24 ar  
    47    23    25 ar  
@<TRIPOS>SUBSTRUCTURE
     1 09C         1 TEMP              0 ****  ****    0 ROOT
