@<TRIPOS>MOLECULE
09C
   43    47     1     0     0
SMALL
bcc


@<TRIPOS>ATOM
      1 C1           1.1150     1.9120    -0.9470 c          1 09C       0.672500
      2 N1          -0.0390    -0.2920    -0.5970 n7         1 09C      -0.788200
      3 O1           2.1270     2.5950    -1.0120 o          1 09C      -0.624500
      4 C2           1.1460     0.5040    -0.3370 c6         1 09C       0.168700
      5 N2          -0.0830     2.3620    -1.3480 ns         1 09C      -0.585900
      6 N3          -3.7680    -2.1900    -0.7830 na         1 09C      -0.169400
      7 N4           3.8000    -1.6640    -1.7130 na         1 09C      -0.168400
      8 C3          -5.8190     1.1470     0.4230 ca         1 09C      -0.132000
      9 C4           5.5890     0.7680     1.0580 ca         1 09C      -0.138000
     10 C5          -4.4490     1.1330     0.2530 ca         1 09C      -0.083000
     11 C6           4.2450     0.8440     0.7550 ca         1 09C      -0.059000
     12 C7          -2.4840    -1.7250    -0.7970 cc         1 09C      -0.075100
     13 C8           2.5040    -1.2380    -1.6430 cc         1 09C      -0.095100
     14 C9          -5.9910    -1.1950    -0.2440 ca         1 09C      -0.115000
     15 C10          5.9200    -1.0320    -0.5590 ca         1 09C      -0.122000
     16 C11         -1.3370     1.6330    -1.3350 c6         1 09C       0.077000
     17 C12         -1.2510     0.4690    -0.3520 c6         1 09C       0.230700
     18 C13         -6.5680    -0.0120     0.1690 ca         1 09C       0.001100
     19 C14          6.4040    -0.1640     0.3960 ca         1 09C       0.006100
     20 C15         -2.4580    -0.4080    -0.4360 cd         1 09C      -0.151400
     21 C16          2.3920    -0.2240    -0.7330 cd         1 09C      -0.127400
     22 C17         -4.6070    -1.1880    -0.4060 ca         1 09C      -0.050200
     23 C18          4.5580    -0.9440    -0.8420 ca         1 09C      -0.049200
     24 C19         -3.8170    -0.0390    -0.1720 ca         1 09C      -0.083800
     25 C20          3.7050    -0.0190    -0.2030 ca         1 09C      -0.067800
     26 HA           1.1900     0.6750     0.7480 h1         1 09C       0.091700
     27 HAE          6.0110     1.4300     1.8020 ha         1 09C       0.146000
     28 HAF         -3.8840     2.0330     0.4610 ha         1 09C       0.135000
     29 HAG          3.6220     1.5710     1.2590 ha         1 09C       0.143000
     30 HAH         -1.6710    -2.3820    -1.0620 h4         1 09C       0.172000
     31 HAI          1.7560    -1.7130    -2.2570 h4         1 09C       0.158000
     32 HAJ         -6.5740    -2.0860    -0.4350 ha         1 09C       0.149000
     33 HAK          6.5550    -1.7480    -1.0650 ha         1 09C       0.146000
     34 H1AL        -2.1340     2.3270    -1.0680 h1         1 09C       0.048700
     35 H2AL        -1.5660     1.2440    -2.3330 h1         1 09C       0.048700
     36 H12         -0.0430    -0.5900    -1.5680 hn         1 09C       0.350800
     37 H13         -0.0950     3.2860    -1.7570 hn         1 09C       0.317500
     38 H14         -4.0420    -3.1310    -1.0120 hn         1 09C       0.304700
     39 H15          4.1260    -2.4130    -2.3000 hn         1 09C       0.301700
     40 H16         -1.1760     0.8810     0.6630 h1         1 09C       0.079700
     41 HAD         -6.3090     2.0520     0.7540 ha         1 09C       0.147000
     42 BR1         -8.4440     0.0520     0.4090 br         1 09C      -0.102100
     43 BR2          8.2450    -0.2250     0.8360 br         1 09C      -0.110100
@<TRIPOS>BOND
     1     1     3 2   
     2     1     4 1   
     3     1     5 1   
     4     2     4 1   
     5     2    17 1   
     6     2    36 1   
     7     4    21 1   
     8     4    26 1   
     9     5    16 1   
    10     5    37 1   
    11     6    12 1   
    12     6    22 1   
    13     6    38 1   
    14     7    13 1   
    15     7    23 1   
    16     7    39 1   
    17     8    10 ar  
    18     8    18 ar  
    19     8    41 1   
    20     9    11 ar  
    21     9    19 ar  
    22     9    27 1   
    23    10    24 ar  
    24    10    28 1   
    25    11    25 ar  
    26    11    29 1   
    27    12    20 2   
    28    12    30 1   
    29    13    21 2   
    30    13    31 1   
    31    14    18 ar  
    32    14    22 ar  
    33    14    32 1   
    34    15    19 ar  
    35    15    23 ar  
    36    15    33 1   
    37    16    17 1   
    38    16    34 1   
    39    16    35 1   
    40    17    20 1   
    41    17    40 1   
    42    18    42 1   
    43    19    43 1   
    44    20    24 1   
    45    21    25 1   
    46    22    24 ar  
    47    23    25 ar  
@<TRIPOS>SUBSTRUCTURE
     1 09C         1 TEMP              0 ****  ****    0 ROOT
