@<TRIPOS>MOLECULE
09D
   47    51     1     0     0
SMALL
No Charge or Current Charge


@<TRIPOS>ATOM
      1 C1          -5.3940    -1.5050     2.6790 ca         1 09D      -0.139000
      2 C2          -6.4150    -0.5320     2.7990 ca         1 09D      -0.073000
      3 C3          -4.4350    -1.4190     1.6460 ca         1 09D      -0.054000
      4 C4          -6.4880     0.5400     1.8850 ca         1 09D      -0.143000
      5 C5           4.8260     1.1900     1.6910 ca         1 09D      -0.105000
      6 C6           4.9780    -0.2000     1.8020 ca         1 09D      -0.066000
      7 C7           3.1760    -0.5120     0.2000 ca         1 09D      -0.049000
      8 C8          -4.5230    -0.3440     0.7470 ca         1 09D      -0.132300
      9 C9           2.9960     0.8870     0.0880 ca         1 09D      -0.096300
     10 C10         -5.5230     0.5980     0.8740 ca         1 09D      -0.027000
     11 C11          3.8520     1.7410     0.8370 ca         1 09D      -0.065000
     12 C12          4.1540    -1.0490     1.0520 ca         1 09D      -0.030900
     13 C13         -4.3100     1.3280    -1.0180 c          1 09D       0.564000
     14 C14         -0.2240     0.4890    -1.7020 c          1 09D       0.596100
     15 C15          1.4790     2.8770    -0.6660 c6         1 09D      -0.100400
     16 C16         -2.1590     0.1980    -0.0410 c5         1 09D      -0.071400
     17 C17         -3.6340    -1.1230    -1.4910 c5         1 09D       0.168800
     18 C18          2.6920     3.8120    -0.6960 c6         1 09D       0.046600
     19 C19          1.9010     1.4020    -0.8760 c6         1 09D       0.222600
     20 C20         -1.3880    -0.4580    -1.2390 c5         1 09D       0.099500
     21 C21         -3.6530     0.0190    -0.4550 c5         1 09D      -0.135700
     22 N22         -5.3640     1.5300    -0.1490 ns         1 09D      -0.144000
     23 N23         -2.4350    -0.7700    -2.2800 n7         1 09D      -0.822400
     24 O24         -4.0030     2.0260    -1.9760 o          1 09D      -0.525000
     25 O26          0.7460     0.5480    -0.7330 os         1 09D      -0.449100
     26 S27          3.7670     3.5290     0.7610 ss         1 09D      -0.160000
     27 Br2          4.3630    -2.9450     1.1870 br         1 09D      -0.094100
     28 H1          -5.3480    -2.3280     3.3880 ha         1 09D       0.120000
     29 H2          -7.1480    -0.6110     3.6000 ha         1 09D       0.117000
     30 H3          -3.6500    -2.1660     1.5520 ha         1 09D       0.120000
     31 H4          -7.2680     1.2950     1.9640 ha         1 09D       0.123000
     32 H6           5.7350    -0.6150     2.4630 ha         1 09D       0.132000
     33 H8           0.9520     2.9840     0.2910 hc         1 09D       0.072200
     34 H9           0.7750     3.1840    -1.4500 hc         1 09D       0.072200
     35 H10         -1.9150    -0.3180     0.8950 hc         1 09D       0.067700
     36 H11         -1.9030     1.2540     0.1070 hc         1 09D       0.067700
     37 H12         -3.5070    -2.1040    -1.0090 h1         1 09D       0.068700
     38 H13         -4.5470    -1.1590    -2.1030 h1         1 09D       0.068700
     39 H14          3.2850     3.6430    -1.6070 h1         1 09D       0.079700
     40 H15          2.3710     4.8630    -0.6830 h1         1 09D       0.079700
     41 H16          2.2960     1.2890    -1.8970 h1         1 09D       0.080700
     42 H17         -0.9140    -1.3890    -0.8960 h1         1 09D       0.092700
     43 H18         -5.9920     2.3160    -0.2520 hn         1 09D       0.175000
     44 H19         -2.6400     0.0980    -2.7970 hn         1 09D       0.446000
     45 H7           2.5540    -1.1920    -0.3770 ha         1 09D       0.135000
     46 O25         -0.1590     1.0870    -2.7700 o          1 09D      -0.461000
     47 H5           5.4740     1.8460     2.2680 ha         1 09D       0.129000
@<TRIPOS>BOND
     1     1     2 ar  
     2     1     3 ar  
     3     1    28 1   
     4     2     4 ar  
     5     2    29 1   
     6     3     8 ar  
     7     3    30 1   
     8     4    10 ar  
     9     4    31 1   
    10     5     6 ar  
    11     5    11 ar  
    12     5    47 1   
    13     6    12 ar  
    14     6    32 1   
    15     7     9 ar  
    16     7    12 ar  
    17     7    45 1   
    18     8    10 ar  
    19     8    21 1   
    20     9    11 ar  
    21     9    19 1   
    22    10    22 1   
    23    11    26 1   
    24    12    27 1   
    25    13    21 1   
    26    13    22 1   
    27    13    24 2   
    28    14    20 1   
    29    14    25 1   
    30    14    46 2   
    31    15    18 1   
    32    15    19 1   
    33    15    33 1   
    34    15    34 1   
    35    16    20 1   
    36    16    21 1   
    37    16    35 1   
    38    16    36 1   
    39    17    21 1   
    40    17    23 1   
    41    17    37 1   
    42    17    38 1   
    43    18    26 1   
    44    18    39 1   
    45    18    40 1   
    46    19    25 1   
    47    19    41 1   
    48    20    23 1   
    49    20    42 1   
    50    22    43 1   
    51    23    44 1   
@<TRIPOS>SUBSTRUCTURE
     1 09D         1 TEMP              0 ****  ****    0 ROOT
