@<TRIPOS>MOLECULE
09D
   47    51     1     0     0
SMALL
bcc


@<TRIPOS>ATOM
      1 C1          -5.7360    -1.4070     2.6030 ca         1 09D      -0.157000
      2 C2          -6.7650    -0.4790     2.4990 ca         1 09D      -0.091000
      3 C3          -4.6380    -1.3390     1.7450 ca         1 09D      -0.072000
      4 C4          -6.7290     0.5370     1.5460 ca         1 09D      -0.161000
      5 C5           5.0750     1.1470     1.2430 ca         1 09D      -0.123000
      6 C6           5.1990    -0.2250     1.3490 ca         1 09D      -0.084000
      7 C7           3.1500    -0.4690     0.1080 ca         1 09D      -0.067000
      8 C8          -4.5910    -0.3370     0.7980 ca         1 09D      -0.132300
      9 C9           3.0120     0.9160     0.0100 ca         1 09D      -0.096300
     10 C10         -5.6320     0.5860     0.7090 ca         1 09D       0.065600
     11 C11          3.9960     1.7310     0.5760 ca         1 09D       0.061900
     12 C12          4.2270    -1.0270     0.7700 ca         1 09D      -0.030900
     13 C13         -4.1620     1.2260    -0.9120 c          1 09D       0.706500
     14 C14         -0.1940     0.4310    -1.4520 c          1 09D       0.645100
     15 C15          1.4520     2.8950    -0.3420 c6         1 09D      -0.100400
     16 C16         -2.1290     0.1760     0.1810 c5         1 09D      -0.071400
     17 C17         -3.4420    -1.1370    -1.3490 c5         1 09D       0.168800
     18 C18          2.6080     3.8460    -0.5640 c6         1 09D      -0.001300
     19 C19          1.8310     1.4820    -0.7500 c6         1 09D       0.199400
     20 C20         -1.2800    -0.4860    -0.9530 c5         1 09D       0.099500
     21 C21         -3.5860    -0.0320    -0.2650 c5         1 09D      -0.135700
     22 N22         -5.3530     1.4890    -0.3110 ns         1 09D      -0.470100
     23 N23         -2.1840    -0.8860    -2.0110 n7         1 09D      -0.767200
     24 O24         -3.6580     1.8680    -1.8110 o          1 09D      -0.600500
     25 O26          0.7230     0.6090    -0.5050 os         1 09D      -0.425900
     26 S27          3.9870     3.4890     0.5530 ss         1 09D      -0.239000
     27 BR2          4.3780    -2.9050     0.8840 br         1 09D      -0.094100
     28 H1          -5.7870    -2.1850     3.3520 ha         1 09D       0.138000
     29 H2          -7.6130    -0.5430     3.1690 ha         1 09D       0.135000
     30 H3          -3.8360    -2.0630     1.8280 ha         1 09D       0.138000
     31 H4          -7.5330     1.2570     1.4690 ha         1 09D       0.141000
     32 H6           6.0470    -0.6480     1.8690 ha         1 09D       0.150000
     33 H8           1.1340     2.9170     0.7030 hc         1 09D       0.072200
     34 H9           0.6100     3.2280    -0.9520 hc         1 09D       0.072200
     35 H10         -1.9400    -0.3180     1.1330 hc         1 09D       0.067700
     36 H11         -1.9000     1.2320     0.3260 hc         1 09D       0.067700
     37 H12         -3.4160    -2.1080    -0.8460 h1         1 09D       0.068700
     38 H13         -4.2680    -1.1570    -2.0610 h1         1 09D       0.068700
     39 H14          2.9550     3.8130    -1.5970 h1         1 09D       0.079700
     40 H15          2.3140     4.8710    -0.3420 h1         1 09D       0.079700
     41 H16          2.0700     1.4700    -1.8180 h1         1 09D       0.080700
     42 H17         -0.7980    -1.3760    -0.5360 h1         1 09D       0.092700
     43 H18         -5.9480     2.2610    -0.5710 hn         1 09D       0.341500
     44 H19         -2.2990    -0.1210    -2.6670 hn         1 09D       0.390800
     45 H7           2.4040    -1.1120    -0.3400 ha         1 09D       0.153000
     46 O25         -0.1620     0.9440    -2.5390 o          1 09D      -0.510000
     47 H5           5.8400     1.7750     1.6840 ha         1 09D       0.147000
@<TRIPOS>BOND
     1     1     2 ar  
     2     1     3 ar  
     3     1    28 1   
     4     2     4 ar  
     5     2    29 1   
     6     3     8 ar  
     7     3    30 1   
     8     4    10 ar  
     9     4    31 1   
    10     5     6 ar  
    11     5    11 ar  
    12     5    47 1   
    13     6    12 ar  
    14     6    32 1   
    15     7     9 ar  
    16     7    12 ar  
    17     7    45 1   
    18     8    10 ar  
    19     8    21 1   
    20     9    11 ar  
    21     9    19 1   
    22    10    22 1   
    23    11    26 1   
    24    12    27 1   
    25    13    21 1   
    26    13    22 1   
    27    13    24 2   
    28    14    20 1   
    29    14    25 1   
    30    14    46 2   
    31    15    18 1   
    32    15    19 1   
    33    15    33 1   
    34    15    34 1   
    35    16    20 1   
    36    16    21 1   
    37    16    35 1   
    38    16    36 1   
    39    17    21 1   
    40    17    23 1   
    41    17    37 1   
    42    17    38 1   
    43    18    26 1   
    44    18    39 1   
    45    18    40 1   
    46    19    25 1   
    47    19    41 1   
    48    20    23 1   
    49    20    42 1   
    50    22    43 1   
    51    23    44 1   
@<TRIPOS>SUBSTRUCTURE
     1 09D         1 TEMP              0 ****  ****    0 ROOT
