@<TRIPOS>MOLECULE
09E
   49    53     1     0     0
SMALL
No Charge or Current Charge


@<TRIPOS>ATOM
      1 C1           4.9330     0.0630    -0.7530 ca         1 09E      -0.134300
      2 C2           4.0290     0.1200     0.4780 c5         1 09E      -0.135700
      3 C3           4.9540    -0.8380    -1.8290 ca         1 09E      -0.054000
      4 C4           2.5260     0.2220     0.0730 c5         1 09E      -0.072400
      5 C5           5.9190    -0.6450    -2.8420 ca         1 09E      -0.138000
      6 C6           6.8030     1.3230    -1.6780 ca         1 09E      -0.142000
      7 C7           1.8230    -0.7160     1.1150 c5         1 09E       0.098500
      8 C8           6.8390     0.4290    -2.7680 ca         1 09E      -0.072000
      9 C9           0.5620     0.0060     1.7100 c          1 09E       0.597100
     10 N1           2.8920    -1.1000     2.1070 n7         1 09E      -0.819400
     11 O1           0.4190     0.3730     2.8700 o          1 09E      -0.456000
     12 C10          4.1230    -1.1850     1.2950 c5         1 09E       0.166800
     13 C11          4.5530     1.3650     1.2760 c          1 09E       0.565000
     14 O2           4.1750     1.8480     2.3360 o          1 09E      -0.528000
     15 N2           5.5820     1.8200     0.4770 ns         1 09E      -0.142000
     16 C12          5.8360     1.1050    -0.6910 ca         1 09E      -0.027000
     17 C13         -1.6680     0.7730     1.0200 c6         1 09E       0.211600
     18 C14         -1.4340     2.3090     1.1030 c6         1 09E      -0.083400
     19 O3          -0.4140     0.1110     0.7510 os         1 09E      -0.447100
     20 C15         -2.7580     3.1080     1.1640 c6         1 09E      -0.305400
     21 S1          -3.6660     2.9350    -0.3810 sy         1 09E       1.055500
     22 C16         -3.6170     1.1630    -0.7030 ca         1 09E      -0.229500
     23 C17         -2.6920     0.3010    -0.0460 ca         1 09E       0.001700
     24 C18         -2.7380    -1.0800    -0.3440 ca         1 09E      -0.082000
     25 C19         -3.6520    -1.5900    -1.2780 ca         1 09E       0.022100
     26 C20         -4.5490    -0.7330    -1.9280 ca         1 09E      -0.093000
     27 C21         -4.5340     0.6390    -1.6400 ca         1 09E      -0.018000
     28 Br1         -3.6780    -3.4640    -1.6590 br         1 09E      -0.077100
     29 O4          -5.0620     3.3240    -0.1450 o          1 09E      -0.515000
     30 O5          -2.8820     3.5980    -1.4310 o          1 09E      -0.515000
     31 H1           4.2470    -1.6630    -1.8840 ha         1 09E       0.120000
     32 H2           2.1640     1.2570     0.1150 hc         1 09E       0.070200
     33 H3           2.3370    -0.1330    -0.9460 hc         1 09E       0.070200
     34 H4           5.9560    -1.3290    -3.6870 ha         1 09E       0.120000
     35 H5           7.5040     2.1520    -1.6070 ha         1 09E       0.124000
     36 H6           1.4530    -1.6140     0.5990 h1         1 09E       0.091700
     37 H7           7.5770     0.5650    -3.5560 ha         1 09E       0.118000
     38 H8           3.0050    -0.3220     2.7740 hn         1 09E       0.445000
     39 H10          4.0990    -2.0720     0.6450 h1         1 09E       0.069700
     40 H11          5.0330    -1.2390     1.9110 h1         1 09E       0.069700
     41 H12          6.1290     2.6330     0.7300 hn         1 09E       0.176000
     42 H13         -2.0460     0.4250     1.9930 h1         1 09E       0.084700
     43 H15         -0.8320     2.6370     0.2430 hc         1 09E       0.083200
     44 H16         -3.4220     2.7360     1.9550 h1         1 09E       0.113200
     45 H17         -2.5880     4.1830     1.2950 h1         1 09E       0.113200
     46 H18         -2.0600    -1.7670     0.1550 ha         1 09E       0.139000
     47 H19         -5.2580    -1.1300    -2.6510 ha         1 09E       0.139000
     48 H20         -5.2400     1.2960    -2.1470 ha         1 09E       0.140000
     49 H14         -0.8380     2.5410     1.9960 hc         1 09E       0.083200
@<TRIPOS>BOND
     1     1     2 1   
     2     1     3 ar  
     3     1    16 ar  
     4     2     4 1   
     5     2    12 1   
     6     2    13 1   
     7     3     5 ar  
     8     3    31 1   
     9     4     7 1   
    10     4    32 1   
    11     4    33 1   
    12     5     8 ar  
    13     5    34 1   
    14     6     8 ar  
    15     6    16 ar  
    16     6    35 1   
    17     7     9 1   
    18     7    10 1   
    19     7    36 1   
    20     8    37 1   
    21     9    11 2   
    22     9    19 1   
    23    10    12 1   
    24    10    38 1   
    25    12    39 1   
    26    12    40 1   
    27    13    14 2   
    28    13    15 1   
    29    15    16 1   
    30    15    41 1   
    31    17    18 1   
    32    17    19 1   
    33    17    23 1   
    34    17    42 1   
    35    18    20 1   
    36    18    43 1   
    37    18    49 1   
    38    20    21 1   
    39    20    44 1   
    40    20    45 1   
    41    21    22 1   
    42    21    29 2   
    43    21    30 2   
    44    22    23 ar  
    45    22    27 ar  
    46    23    24 ar  
    47    24    25 ar  
    48    24    46 1   
    49    25    26 ar  
    50    25    28 1   
    51    26    27 ar  
    52    26    47 1   
    53    27    48 1   
@<TRIPOS>SUBSTRUCTURE
     1 09E         1 TEMP              0 ****  ****    0 ROOT
