@<TRIPOS>MOLECULE
09E
   49    53     1     0     0
SMALL
bcc


@<TRIPOS>ATOM
      1 C1           4.9490     0.0540    -0.8050 ca         1 09E      -0.134300
      2 C2           3.9600     0.1340     0.3140 c5         1 09E      -0.135700
      3 C3           5.0570    -0.8260    -1.8610 ca         1 09E      -0.072000
      4 C4           2.4720     0.2340    -0.0680 c5         1 09E      -0.072400
      5 C5           6.1190    -0.6790    -2.7550 ca         1 09E      -0.156000
      6 C6           6.9530     1.2300    -1.5130 ca         1 09E      -0.160000
      7 C7           1.7500    -0.6860     0.9670 c5         1 09E       0.098500
      8 C8           7.0510     0.3350    -2.5770 ca         1 09E      -0.090000
      9 C9           0.5310    -0.0350     1.5630 c          1 09E       0.646100
     10 N1           2.7160    -1.0690     1.9760 n7         1 09E      -0.764200
     11 O1           0.3820     0.2450     2.7220 o          1 09E      -0.505000
     12 C10          3.9770    -1.0920     1.2720 c5         1 09E       0.166800
     13 C11          4.4290     1.3670     1.0800 c          1 09E       0.707500
     14 O2           3.8980     1.8510     2.0600 o          1 09E      -0.603500
     15 N2           5.5640     1.8170     0.4820 ns         1 09E      -0.468100
     16 C12          5.8930     1.0680    -0.6420 ca         1 09E       0.065600
     17 C13         -1.5990     0.8420     0.9520 c6         1 09E       0.188400
     18 C14         -1.4070     2.3510     0.9530 c6         1 09E      -0.083400
     19 O3          -0.3690     0.2040     0.6090 os         1 09E      -0.423900
     20 C15         -2.7260     3.0650     1.1930 c6         1 09E      -0.194600
     21 S1          -3.7590     2.8750    -0.2410 sy         1 09E       1.086300
     22 C16         -3.6550     1.1270    -0.5460 ca         1 09E      -0.229500
     23 C17         -2.6350     0.3320    -0.0270 ca         1 09E       0.001700
     24 C18         -2.6240    -1.0190    -0.3720 ca         1 09E      -0.100000
     25 C19         -3.5910    -1.5310    -1.2190 ca         1 09E       0.022100
     26 C20         -4.6000    -0.7320    -1.7380 ca         1 09E      -0.111000
     27 C21         -4.6280     0.6050    -1.3900 ca         1 09E      -0.036000
     28 BR1         -3.5400    -3.3570    -1.6720 br         1 09E      -0.077100
     29 O4          -5.1420     3.2120     0.0790 o          1 09E      -0.585800
     30 O5          -3.1310     3.5570    -1.3700 o          1 09E      -0.585800
     31 H1           4.3300    -1.6170    -1.9980 ha         1 09E       0.138000
     32 H2           2.1210     1.2650    -0.0350 hc         1 09E       0.070200
     33 H3           2.3040    -0.1270    -1.0820 hc         1 09E       0.070200
     34 H4           6.2160    -1.3590    -3.5910 ha         1 09E       0.138000
     35 H5           7.6810     2.0190    -1.3800 ha         1 09E       0.142000
     36 H6           1.4150    -1.5850     0.4380 h1         1 09E       0.091700
     37 H7           7.8690     0.4380    -3.2770 ha         1 09E       0.136000
     38 H8           2.7520    -0.3630     2.7030 hn         1 09E       0.389800
     39 H10          4.0460    -1.9990     0.6630 h1         1 09E       0.069700
     40 H11          4.8200    -1.0920     1.9610 h1         1 09E       0.069700
     41 H12          6.0820     2.6190     0.8090 hn         1 09E       0.342500
     42 H13         -1.9120     0.5250     1.9530 h1         1 09E       0.084700
     43 H15         -0.9560     2.6790     0.0140 hc         1 09E       0.083200
     44 H16         -3.2680     2.6620     2.0510 h1         1 09E       0.113200
     45 H17         -2.5950     4.1390     1.3340 h1         1 09E       0.113200
     46 H18         -1.8580    -1.6680     0.0300 ha         1 09E       0.157000
     47 H19         -5.3580    -1.1330    -2.3950 ha         1 09E       0.157000
     48 H20         -5.4170     1.2320    -1.7820 ha         1 09E       0.158000
     49 H14         -0.7210     2.6270     1.7530 hc         1 09E       0.083200
@<TRIPOS>BOND
     1     1     2 1   
     2     1     3 ar  
     3     1    16 ar  
     4     2     4 1   
     5     2    12 1   
     6     2    13 1   
     7     3     5 ar  
     8     3    31 1   
     9     4     7 1   
    10     4    32 1   
    11     4    33 1   
    12     5     8 ar  
    13     5    34 1   
    14     6     8 ar  
    15     6    16 ar  
    16     6    35 1   
    17     7     9 1   
    18     7    10 1   
    19     7    36 1   
    20     8    37 1   
    21     9    11 2   
    22     9    19 1   
    23    10    12 1   
    24    10    38 1   
    25    12    39 1   
    26    12    40 1   
    27    13    14 2   
    28    13    15 1   
    29    15    16 1   
    30    15    41 1   
    31    17    18 1   
    32    17    19 1   
    33    17    23 1   
    34    17    42 1   
    35    18    20 1   
    36    18    43 1   
    37    18    49 1   
    38    20    21 1   
    39    20    44 1   
    40    20    45 1   
    41    21    22 1   
    42    21    29 2   
    43    21    30 2   
    44    22    23 ar  
    45    22    27 ar  
    46    23    24 ar  
    47    24    25 ar  
    48    24    46 1   
    49    25    26 ar  
    50    25    28 1   
    51    26    27 ar  
    52    26    47 1   
    53    27    48 1   
@<TRIPOS>SUBSTRUCTURE
     1 09E         1 TEMP              0 ****  ****    0 ROOT
