@<TRIPOS>MOLECULE
09F
   46    49     1     0     0
SMALL
abcg2


@<TRIPOS>ATOM
      1 C24          3.2560    -0.9240    -1.1350 c1         1 09F       0.279900
      2 C5          -5.0850     2.5080     0.1220 ca         1 09F      -0.140000
      3 C8          -5.8480     1.7980    -0.7960 ca         1 09F      -0.072000
      4 C3          -3.8780     1.9850     0.5880 ca         1 09F      -0.055000
      5 C6          -5.4350     0.5550    -1.2730 ca         1 09F      -0.144000
      6 C1          -3.4580     0.7570     0.1210 ca         1 09F      -0.133300
      7 C17         -4.2370     0.0570    -0.7980 ca         1 09F      -0.025000
      8 C14         -2.4280    -1.2850    -0.4510 c          1 09F       0.563000
      9 C9           1.2920    -0.5350     0.9110 c          1 09F       0.596100
     10 C21          6.2530     0.8380    -0.1910 c6         1 09F      -0.078400
     11 C20          5.7810    -0.4600     0.4520 c6         1 09F      -0.075400
     12 C22          5.2910     1.2870    -1.2830 c6         1 09F      -0.075400
     13 C19          4.3590    -0.3370     0.9950 c6         1 09F      -0.080900
     14 C23          3.8670     1.4100    -0.7540 c6         1 09F      -0.080900
     15 C4          -0.8800     0.6040     0.2340 c5         1 09F      -0.071400
     16 C13         -2.1610    -0.5190     1.9290 c5         1 09F       0.169800
     17 C7           0.0010     0.0600     1.4070 c5         1 09F       0.102500
     18 C18          3.3800     0.1140    -0.0940 c6         1 09F       0.269100
     19 C2          -2.2500    -0.0630     0.4480 c5         1 09F      -0.135700
     20 N25          3.2170    -1.6840    -1.9970 n1         1 09F      -0.434000
     21 N16         -3.6070    -1.1420    -1.1100 ns         1 09F      -0.143000
     22 N10         -0.7860    -0.9030     2.1490 n7         1 09F      -0.825400
     23 O12          1.5720    -1.7030     0.9110 o          1 09F      -0.446000
     24 O11          2.0870     0.4240     0.4330 os         1 09F      -0.453100
     25 H1          -5.4250     3.4710     0.4770 ha         1 09F       0.119000
     26 H2          -6.7820     2.2130    -1.1510 ha         1 09F       0.116000
     27 H3          -3.2830     2.5400     1.3030 ha         1 09F       0.119000
     28 H4          -6.0330     0.0050    -1.9880 ha         1 09F       0.124000
     29 H5           6.3260     1.6170     0.5750 hc         1 09F       0.044200
     30 H6           7.2560     0.7100    -0.6040 hc         1 09F       0.044200
     31 H7           5.8350    -1.2760    -0.2770 hc         1 09F       0.050700
     32 H8           6.4390    -0.7450     1.2740 hc         1 09F       0.050700
     33 H9           5.5940     2.2530    -1.6880 hc         1 09F       0.050700
     34 H10          5.3230     0.5800    -2.1190 hc         1 09F       0.050700
     35 H11          4.0410    -1.2810     1.4360 hc         1 09F       0.062950
     36 H12          4.3300     0.4220     1.7830 hc         1 09F       0.062950
     37 H13          3.8250     2.1890     0.0130 hc         1 09F       0.062950
     38 H14          3.1790     1.7000    -1.5500 hc         1 09F       0.062950
     39 H15         -0.9690     1.6870     0.3040 hc         1 09F       0.068200
     40 H16         -0.4720     0.3800    -0.7520 hc         1 09F       0.068200
     41 H17         -2.4210     0.3320     2.5650 h1         1 09F       0.067200
     42 H18         -2.8440    -1.3320     2.1760 h1         1 09F       0.067200
     43 H19          0.2550     0.9030     2.0560 h1         1 09F       0.090700
     44 H20         -3.9670    -1.8240    -1.7600 hn         1 09F       0.176000
     45 H21         -0.6320    -1.8310     1.7700 hn         1 09F       0.449000
     46 O15         -1.6620    -2.2230    -0.5510 o          1 09F      -0.517000
@<TRIPOS>BOND
     1     1    18 1   
     2     1    20 3   
     3     2     3 ar  
     4     2     4 ar  
     5     2    25 1   
     6     3     5 ar  
     7     3    26 1   
     8     4     6 ar  
     9     4    27 1   
    10     5     7 ar  
    11     5    28 1   
    12     6     7 ar  
    13     6    19 1   
    14     7    21 1   
    15     8    19 1   
    16     8    21 1   
    17     8    46 2   
    18     9    17 1   
    19     9    23 2   
    20     9    24 1   
    21    10    11 1   
    22    10    12 1   
    23    10    29 1   
    24    10    30 1   
    25    11    13 1   
    26    11    31 1   
    27    11    32 1   
    28    12    14 1   
    29    12    33 1   
    30    12    34 1   
    31    13    18 1   
    32    13    35 1   
    33    13    36 1   
    34    14    18 1   
    35    14    37 1   
    36    14    38 1   
    37    15    17 1   
    38    15    19 1   
    39    15    39 1   
    40    15    40 1   
    41    16    19 1   
    42    16    22 1   
    43    16    41 1   
    44    16    42 1   
    45    17    22 1   
    46    17    43 1   
    47    18    24 1   
    48    21    44 1   
    49    22    45 1   
@<TRIPOS>SUBSTRUCTURE
     1 09F         1 TEMP              0 ****  ****    0 ROOT
