@<TRIPOS>MOLECULE
09F
   46    49     1     0     0
SMALL
No Charge or Current Charge


@<TRIPOS>ATOM
      1 C24          3.3010    -0.8890    -1.3390 c1         1 09F       0.279900
      2 C5          -4.8280     2.6660    -0.0070 ca         1 09F      -0.140000
      3 C8          -5.6970     1.9920    -0.8990 ca         1 09F      -0.072000
      4 C3          -3.6910     2.0150     0.5200 ca         1 09F      -0.055000
      5 C6          -5.4380     0.6570    -1.2730 ca         1 09F      -0.144000
      6 C1          -3.4490     0.6870     0.1350 ca         1 09F      -0.133300
      7 C17         -4.3040     0.0410    -0.7340 ca         1 09F      -0.025000
      8 C14         -2.6650    -1.5910    -0.2520 c          1 09F       0.563000
      9 C9           1.3140    -0.6890     0.9200 c          1 09F       0.596100
     10 C21          6.2890     1.0340    -0.1030 c6         1 09F      -0.078400
     11 C20          5.8790    -0.3590     0.4280 c6         1 09F      -0.075400
     12 C22          5.3420     1.4960    -1.2350 c6         1 09F      -0.075400
     13 C19          4.3960    -0.3750     0.8940 c6         1 09F      -0.080900
     14 C23          3.8620     1.4820    -0.7640 c6         1 09F      -0.080900
     15 C4          -0.9250     0.3200     0.1740 c5         1 09F      -0.071400
     16 C13         -2.2850    -0.4830     2.0540 c5         1 09F       0.169800
     17 C7          -0.0540    -0.0930     1.4100 c5         1 09F       0.102500
     18 C18          3.3970     0.0970    -0.2170 c6         1 09F       0.269100
     19 C2          -2.3260    -0.2720     0.5260 c5         1 09F      -0.135700
     20 N25          3.2170    -1.6320    -2.2340 n1         1 09F      -0.434000
     21 N16         -3.8200    -1.2510    -0.9270 ns         1 09F      -0.143000
     22 N10         -0.9190    -1.0190     2.2290 n7         1 09F      -0.825400
     23 O12          1.6620    -1.8590     1.0210 o          1 09F      -0.446000
     24 O11          2.0710     0.3050     0.3410 os         1 09F      -0.453100
     25 H1          -5.0380     3.6950     0.2760 ha         1 09F       0.119000
     26 H2          -6.5700     2.5070    -1.2960 ha         1 09F       0.116000
     27 H3          -3.0220     2.5310     1.2060 ha         1 09F       0.119000
     28 H4          -6.0980     0.1260    -1.9560 ha         1 09F       0.124000
     29 H5           6.2690     1.7640     0.7180 hc         1 09F       0.044200
     30 H6           7.3240     1.0050    -0.4700 hc         1 09F       0.044200
     31 H7           6.0380    -1.1160    -0.3520 hc         1 09F       0.050700
     32 H8           6.5320    -0.6410     1.2660 hc         1 09F       0.050700
     33 H9           5.6190     2.5100    -1.5560 hc         1 09F       0.050700
     34 H10          5.4700     0.8510    -2.1150 hc         1 09F       0.050700
     35 H11          4.1510    -1.3880     1.2370 hc         1 09F       0.062950
     36 H12          4.2900     0.2780     1.7720 hc         1 09F       0.062950
     37 H13          3.7340     2.2380     0.0230 hc         1 09F       0.062950
     38 H14          3.2100     1.7990    -1.5900 hc         1 09F       0.062950
     39 H15         -0.9410     1.4110     0.0680 hc         1 09F       0.068200
     40 H16         -0.5440    -0.0800    -0.7730 hc         1 09F       0.068200
     41 H17         -2.4030     0.4660     2.5970 h1         1 09F       0.067200
     42 H18         -3.0600    -1.1780     2.4090 h1         1 09F       0.067200
     43 H19          0.1890     0.8040     1.9960 h1         1 09F       0.090700
     44 H20         -4.2940    -1.9090    -1.5310 hn         1 09F       0.176000
     45 H21         -0.8860    -1.9550     1.7980 hn         1 09F       0.449000
     46 O15         -2.0830    -2.6690    -0.2850 o          1 09F      -0.517000
@<TRIPOS>BOND
     1     1    18 1   
     2     1    20 3   
     3     2     3 ar  
     4     2     4 ar  
     5     2    25 1   
     6     3     5 ar  
     7     3    26 1   
     8     4     6 ar  
     9     4    27 1   
    10     5     7 ar  
    11     5    28 1   
    12     6     7 ar  
    13     6    19 1   
    14     7    21 1   
    15     8    19 1   
    16     8    21 1   
    17     8    46 2   
    18     9    17 1   
    19     9    23 2   
    20     9    24 1   
    21    10    11 1   
    22    10    12 1   
    23    10    29 1   
    24    10    30 1   
    25    11    13 1   
    26    11    31 1   
    27    11    32 1   
    28    12    14 1   
    29    12    33 1   
    30    12    34 1   
    31    13    18 1   
    32    13    35 1   
    33    13    36 1   
    34    14    18 1   
    35    14    37 1   
    36    14    38 1   
    37    15    17 1   
    38    15    19 1   
    39    15    39 1   
    40    15    40 1   
    41    16    19 1   
    42    16    22 1   
    43    16    41 1   
    44    16    42 1   
    45    17    22 1   
    46    17    43 1   
    47    18    24 1   
    48    21    44 1   
    49    22    45 1   
@<TRIPOS>SUBSTRUCTURE
     1 09F         1 TEMP              0 ****  ****    0 ROOT
