@<TRIPOS>MOLECULE
09G
   43    46     1     0     0
SMALL
No Charge or Current Charge


@<TRIPOS>ATOM
      1 C5          -4.9630     3.5590     0.6820 ca         1 09G      -0.139000
      2 C8          -5.9930     3.5790    -0.2900 ca         1 09G      -0.072000
      3 C23          3.5040     0.0840    -2.3450 ca         1 09G      -0.077000
      4 C3          -4.2700     2.3640     0.9730 ca         1 09G      -0.054000
      5 C24          2.4420    -0.7940    -2.0680 ca         1 09G      -0.079000
      6 C6          -6.3410     2.4000    -0.9820 ca         1 09G      -0.144000
      7 C20          3.3210    -1.1500     0.1700 ca         1 09G      -0.069000
      8 C22          4.4820     0.3510    -1.3670 ca         1 09G       0.019000
      9 C1          -4.6300     1.2020     0.2730 ca         1 09G      -0.134300
     10 C19          2.3460    -1.4180    -0.8100 ca         1 09G      -0.073300
     11 C17         -5.6360     1.2330    -0.6710 ca         1 09G      -0.027000
     12 C21          4.3850    -0.2720    -0.1030 ca         1 09G       0.001100
     13 C14         -4.9320    -1.0230    -0.6840 c          1 09G       0.563000
     14 C9          -1.0020    -2.2680     0.4800 c          1 09G       0.590100
     15 C4          -2.5450    -0.2550     0.0740 c5         1 09G      -0.068400
     16 C13         -4.2240    -0.7830     1.7910 c5         1 09G       0.170800
     17 C7          -2.0140    -1.2680     1.1470 c5         1 09G       0.102500
     18 C2          -4.0790    -0.2210     0.3610 c5         1 09G      -0.136700
     19 C18          1.1940    -2.3650    -0.5060 c3         1 09G       0.207900
     20 N26          6.4300     1.9880    -1.9330 n1         1 09G      -0.427000
     21 N16         -5.7730    -0.0520    -1.1910 ns         1 09G      -0.143000
     22 N10         -3.2440    -1.8870     1.7640 n7         1 09G      -0.826400
     23 O15         -4.8950    -2.2040    -1.0040 o          1 09G      -0.522000
     24 O11          0.1480    -1.6080     0.1260 os         1 09G      -0.449100
     25 Br2          5.6820     0.0500     1.2790 br         1 09G      -0.058100
     26 H1          -4.7040     4.4740     1.2100 ha         1 09G       0.120000
     27 H2          -6.5190     4.5080    -0.5030 ha         1 09G       0.117000
     28 H3           3.5640     0.5590    -3.3230 ha         1 09G       0.132000
     29 H4          -3.4790     2.3470     1.7200 ha         1 09G       0.120000
     30 H5           1.6910    -0.9870    -2.8320 ha         1 09G       0.128000
     31 H6          -7.1310     2.4000    -1.7300 ha         1 09G       0.124000
     32 H7           3.2520    -1.6230     1.1480 ha         1 09G       0.137000
     33 H8          -2.0670     0.7230     0.2040 hc         1 09G       0.066200
     34 H9          -2.3340    -0.5730    -0.9540 hc         1 09G       0.066200
     35 H10         -3.9470    -0.0360     2.5490 h1         1 09G       0.067700
     36 H11         -5.2450    -1.1290     2.0120 h1         1 09G       0.067700
     37 H12         -1.4500    -0.7180     1.9140 h1         1 09G       0.092700
     38 H13          0.8360    -2.8220    -1.4390 h1         1 09G       0.063700
     39 H14          1.5450    -3.1710     0.1520 h1         1 09G       0.063700
     40 H15         -6.4580    -0.2650    -1.9030 hn         1 09G       0.175000
     41 H16         -3.5960    -2.6110     1.1190 hn         1 09G       0.447000
     42 O12         -1.1840    -3.4660     0.2950 o          1 09G      -0.461000
     43 C25          5.5600     1.2540    -1.6730 cg         1 09G       0.318000
@<TRIPOS>BOND
     1     1     2 ar  
     2     1     4 ar  
     3     1    26 1   
     4     2     6 ar  
     5     2    27 1   
     6     3     5 ar  
     7     3     8 ar  
     8     3    28 1   
     9     4     9 ar  
    10     4    29 1   
    11     5    10 ar  
    12     5    30 1   
    13     6    11 ar  
    14     6    31 1   
    15     7    10 ar  
    16     7    12 ar  
    17     7    32 1   
    18     8    12 ar  
    19     8    43 1   
    20     9    11 ar  
    21     9    18 1   
    22    10    19 1   
    23    11    21 1   
    24    12    25 1   
    25    13    18 1   
    26    13    21 1   
    27    13    23 2   
    28    14    17 1   
    29    14    24 1   
    30    14    42 2   
    31    15    17 1   
    32    15    18 1   
    33    15    33 1   
    34    15    34 1   
    35    16    18 1   
    36    16    22 1   
    37    16    35 1   
    38    16    36 1   
    39    17    22 1   
    40    17    37 1   
    41    19    24 1   
    42    19    38 1   
    43    19    39 1   
    44    20    43 3   
    45    21    40 1   
    46    22    41 1   
@<TRIPOS>SUBSTRUCTURE
     1 09G         1 TEMP              0 ****  ****    0 ROOT
