@<TRIPOS>MOLECULE
09G
   43    46     1     0     0
SMALL
bcc


@<TRIPOS>ATOM
      1 C5          -5.3680     3.5210     0.5960 ca         1 09G      -0.157000
      2 C8          -6.2500     3.3870    -0.4680 ca         1 09G      -0.090000
      3 C23          3.1550     0.3370    -2.0700 ca         1 09G      -0.095000
      4 C3          -4.5350     2.4610     0.9570 ca         1 09G      -0.072000
      5 C24          2.0950    -0.4990    -1.7810 ca         1 09G      -0.097000
      6 C6          -6.3260     2.2040    -1.2010 ca         1 09G      -0.162000
      7 C20          3.4180    -1.6190    -0.1110 ca         1 09G      -0.087000
      8 C22          4.3620     0.2000    -1.3810 ca         1 09G       0.019000
      9 C1          -4.6000     1.2860     0.2390 ca         1 09G      -0.134300
     10 C19          2.2200    -1.4800    -0.8020 ca         1 09G      -0.073300
     11 C17         -5.4900     1.1690    -0.8280 ca         1 09G       0.065600
     12 C21          4.4860    -0.7850    -0.4010 ca         1 09G       0.001100
     13 C14         -4.4110    -0.8380    -0.7630 c          1 09G       0.705500
     14 C9          -1.0150    -2.1210     0.6310 c          1 09G       0.639100
     15 C4          -2.3360     0.0510     0.3870 c5         1 09G      -0.068400
     16 C13         -4.1390    -0.7430     1.7380 c5         1 09G       0.170800
     17 C7          -1.8950    -1.1140     1.3280 c5         1 09G       0.102500
     18 C2          -3.8690    -0.0090     0.3980 c5         1 09G      -0.136700
     19 C18          1.0580    -2.3690    -0.4750 c3         1 09G       0.184700
     20 N26          6.3060     1.7850    -1.9740 n1         1 09G      -0.337800
     21 N16         -5.3630    -0.0960    -1.3890 ns         1 09G      -0.469100
     22 N10         -3.0920    -1.7300     1.8710 n7         1 09G      -0.771200
     23 O15         -4.0650    -1.9600    -1.0730 o          1 09G      -0.597500
     24 O11          0.1280    -1.5600     0.2560 os         1 09G      -0.425900
     25 BR2          6.0990    -0.9840     0.5330 br         1 09G      -0.058100
     26 H1          -5.3250     4.4510     1.1470 ha         1 09G       0.138000
     27 H2          -6.8920     4.2150    -0.7380 ha         1 09G       0.135000
     28 H3           3.0620     1.0980    -2.8320 ha         1 09G       0.150000
     29 H4          -3.8440     2.5630     1.7860 ha         1 09G       0.138000
     30 H5           1.1670    -0.3890    -2.3260 ha         1 09G       0.146000
     31 H6          -7.0140     2.1070    -2.0310 ha         1 09G       0.142000
     32 H7           3.5130    -2.3780     0.6540 ha         1 09G       0.155000
     33 H8          -2.0010     1.0030     0.7970 hc         1 09G       0.066200
     34 H9          -1.9290    -0.0240    -0.6210 hc         1 09G       0.066200
     35 H10         -4.0710    -0.0070     2.5450 h1         1 09G       0.067700
     36 H11         -5.1250    -1.2030     1.7930 h1         1 09G       0.067700
     37 H12         -1.3020    -0.6820     2.1410 h1         1 09G       0.092700
     38 H13          0.5910    -2.7440    -1.3870 h1         1 09G       0.063700
     39 H14          1.3730    -3.2240     0.1260 h1         1 09G       0.063700
     40 H15         -5.8730    -0.4180    -2.1970 hn         1 09G       0.341500
     41 H16         -3.3310    -2.5470     1.3210 hn         1 09G       0.391800
     42 O12         -1.2910    -3.2760     0.4360 o          1 09G      -0.510000
     43 C25          5.4460     1.0700    -1.6980 cg         1 09G       0.228800
@<TRIPOS>BOND
     1     1     2 ar  
     2     1     4 ar  
     3     1    26 1   
     4     2     6 ar  
     5     2    27 1   
     6     3     5 ar  
     7     3     8 ar  
     8     3    28 1   
     9     4     9 ar  
    10     4    29 1   
    11     5    10 ar  
    12     5    30 1   
    13     6    11 ar  
    14     6    31 1   
    15     7    10 ar  
    16     7    12 ar  
    17     7    32 1   
    18     8    12 ar  
    19     8    43 1   
    20     9    11 ar  
    21     9    18 1   
    22    10    19 1   
    23    11    21 1   
    24    12    25 1   
    25    13    18 1   
    26    13    21 1   
    27    13    23 2   
    28    14    17 1   
    29    14    24 1   
    30    14    42 2   
    31    15    17 1   
    32    15    18 1   
    33    15    33 1   
    34    15    34 1   
    35    16    18 1   
    36    16    22 1   
    37    16    35 1   
    38    16    36 1   
    39    17    22 1   
    40    17    37 1   
    41    19    24 1   
    42    19    38 1   
    43    19    39 1   
    44    20    43 3   
    45    21    40 1   
    46    22    41 1   
@<TRIPOS>SUBSTRUCTURE
     1 09G         1 TEMP              0 ****  ****    0 ROOT
