@<TRIPOS>MOLECULE
09H
   51    55     1     0     0
SMALL
bcc


@<TRIPOS>ATOM
      1 C01          6.3450     0.2780     0.6540 ca         1 09H      -0.150000
      2 C02          6.0380     1.6270     0.5840 ca         1 09H      -0.106000
      3 C03          4.7270     2.0500     0.4040 ca         1 09H      -0.152000
      4 C04          3.7080     1.1090     0.2850 ca         1 09H       0.086600
      5 C05          4.0150    -0.2660     0.3330 ca         1 09H       0.044600
      6 C06          5.3300    -0.6630     0.5240 ca         1 09H      -0.131000
      7 N07          2.9380    -1.1710     0.1860 nh         1 09H      -0.649000
      8 C08          2.9360    -2.3290     1.0650 c6         1 09H       0.146800
      9 C09          1.5830    -3.0240     0.9700 c6         1 09H       0.145300
     10 N10          1.2040    -3.3850    -0.3850 n7         1 09H      -0.791200
     11 C11          1.3210    -2.2520    -1.2860 c6         1 09H       0.145300
     12 C12          2.6650    -1.5430    -1.2010 c6         1 09H       0.146800
     13 N13          2.3560     1.4110     0.1530 ns         1 09H      -0.452100
     14 C14          1.7540     2.5870    -0.1140 c          1 09H       0.608600
     15 O15          2.3170     3.6560    -0.2860 o          1 09H      -0.592100
     16 C16          0.2760     2.4670    -0.1940 cc         1 09H       0.286800
     17 N17         -0.3310     1.2610    -0.0130 nc         1 09H      -0.658000
     18 C18         -1.6190     1.3410    -0.1290 cd         1 09H       0.516900
     19 S19         -2.1720     2.9560    -0.4710 ss         1 09H      -0.161300
     20 C20         -0.5580     3.5090    -0.4570 cd         1 09H      -0.143400
     21 C21         -2.5300     0.2120     0.0140 ca         1 09H      -0.188500
     22 C22         -2.0360    -1.0010     0.5010 ca         1 09H      -0.047000
     23 C23         -2.8510    -2.1130     0.6470 ca         1 09H      -0.159000
     24 C24         -4.1850    -1.9800     0.2960 ca         1 09H       0.147100
     25 C25         -4.7010    -0.7840    -0.1890 ca         1 09H      -0.181300
     26 C26         -3.8830     0.3120    -0.3370 ca         1 09H      -0.056000
     27 O27         -5.0990    -2.9580     0.3730 os         1 09H      -0.302900
     28 C28         -6.3960    -2.3860     0.0990 c5         1 09H       0.124400
     29 C29         -6.1470    -1.0020    -0.5220 c5         1 09H      -0.052100
     30 H1           7.3670    -0.0460     0.8020 ha         1 09H       0.132000
     31 H2           6.8210     2.3680     0.6790 ha         1 09H       0.133000
     32 H3           4.5080     3.1060     0.3710 ha         1 09H       0.164000
     33 H4           5.5700    -1.7180     0.5710 ha         1 09H       0.129000
     34 H5           3.7300    -3.0500     0.8120 h1         1 09H       0.040700
     35 H6           3.1130    -1.9980     2.0900 h1         1 09H       0.040700
     36 H7           1.5900    -3.9210     1.5910 h1         1 09H       0.059950
     37 H8           0.8180    -2.3570     1.3810 h1         1 09H       0.059950
     38 H9           1.8120    -4.1280    -0.7100 hn         1 09H       0.346800
     39 H11          1.1520    -2.5920    -2.3100 h1         1 09H       0.059950
     40 H12          0.5270    -1.5330    -1.0560 h1         1 09H       0.059950
     41 H13          2.6520    -0.6430    -1.8200 h1         1 09H       0.040700
     42 H14          3.4590    -2.1950    -1.5980 h1         1 09H       0.040700
     43 H15          1.7550     0.5970     0.2520 hn         1 09H       0.368500
     44 H16         -0.3100     4.5420    -0.6390 h4         1 09H       0.199000
     45 H17         -0.9940    -1.0700     0.7810 ha         1 09H       0.156000
     46 H18         -2.4540    -3.0450     1.0270 ha         1 09H       0.158000
     47 H19         -4.2930     1.2350    -0.7330 ha         1 09H       0.135000
     48 H20         -6.9330    -3.0660    -0.5600 h1         1 09H       0.060200
     49 H21         -6.9410    -2.3100     1.0410 h1         1 09H       0.060200
     50 H22         -6.8040    -0.2450    -0.0960 hc         1 09H       0.064700
     51 H23         -6.3040    -1.0040    -1.6030 hc         1 09H       0.064700
@<TRIPOS>BOND
     1     1     2 ar  
     2     1     6 ar  
     3     1    30 1   
     4     2     3 ar  
     5     2    31 1   
     6     3     4 ar  
     7     3    32 1   
     8     4     5 ar  
     9     4    13 1   
    10     5     6 ar  
    11     5     7 1   
    12     6    33 1   
    13     7     8 1   
    14     7    12 1   
    15     8     9 1   
    16     8    34 1   
    17     8    35 1   
    18     9    10 1   
    19     9    36 1   
    20     9    37 1   
    21    10    11 1   
    22    10    38 1   
    23    11    12 1   
    24    11    39 1   
    25    11    40 1   
    26    12    41 1   
    27    12    42 1   
    28    13    14 1   
    29    13    43 1   
    30    14    15 2   
    31    14    16 1   
    32    16    17 1   
    33    16    20 2   
    34    17    18 2   
    35    18    19 1   
    36    18    21 1   
    37    19    20 1   
    38    20    44 1   
    39    21    22 ar  
    40    21    26 ar  
    41    22    23 ar  
    42    22    45 1   
    43    23    24 ar  
    44    23    46 1   
    45    24    25 ar  
    46    24    27 1   
    47    25    26 ar  
    48    25    29 1   
    49    26    47 1   
    50    27    28 1   
    51    28    29 1   
    52    28    48 1   
    53    28    49 1   
    54    29    50 1   
    55    29    51 1   
@<TRIPOS>SUBSTRUCTURE
     1 09H         1 TEMP              0 ****  ****    0 ROOT
