@<TRIPOS>MOLECULE
09H
   51    55     1     0     0
SMALL
No Charge or Current Charge


@<TRIPOS>ATOM
      1 C01          6.4810     0.3620     0.6740 ca         1 09H      -0.132000
      2 C02          6.1350     1.7210     0.6400 ca         1 09H      -0.088000
      3 C03          4.7970     2.1030     0.4460 ca         1 09H      -0.134000
      4 C04          3.7920     1.1230     0.2790 ca         1 09H      -0.006000
      5 C05          4.1430    -0.2490     0.3150 ca         1 09H       0.183000
      6 C06          5.4880    -0.6180     0.5130 ca         1 09H      -0.113000
      7 N07          3.1500    -1.2470     0.1420 nh         1 09H      -0.787400
      8 C08          3.0890    -2.4250     1.0620 c6         1 09H       0.146800
      9 C09          1.6900    -3.1250     1.0370 c6         1 09H       0.145300
     10 N10          1.2480    -3.4780    -0.3440 n7         1 09H      -0.846400
     11 C11          1.2660    -2.2740    -1.2270 c6         1 09H       0.145300
     12 C12          2.6540    -1.5520    -1.2370 c6         1 09H       0.146800
     13 N13          2.4180     1.4470     0.1070 ns         1 09H      -0.126000
     14 C14          1.7470     2.6360    -0.1340 c          1 09H       0.541600
     15 O15          2.3040     3.7240    -0.2800 o          1 09H      -0.592100
     16 C16          0.2590     2.4340    -0.2080 cc         1 09H       0.221500
     17 N17         -0.3690     1.2120    -0.0320 nc         1 09H      -0.658000
     18 C18         -1.6840     1.3450    -0.1590 cd         1 09H       0.516900
     19 S19         -2.2580     2.9770    -0.5030 ss         1 09H      -0.016400
     20 C20         -0.5820     3.4940    -0.4640 cd         1 09H      -0.205000
     21 C21         -2.6030     0.1950     0.0070 ca         1 09H      -0.188500
     22 C22         -2.1220    -1.0420     0.5160 ca         1 09H      -0.029000
     23 C23         -2.9830    -2.1490     0.6520 ca         1 09H      -0.141000
     24 C24         -4.3210    -2.0050     0.2790 ca         1 09H       0.147100
     25 C25         -4.8000    -0.8230    -0.2280 ca         1 09H      -0.181300
     26 C26         -3.9640     0.2940    -0.3790 ca         1 09H      -0.038000
     27 O27         -5.2520    -3.0030     0.3460 os         1 09H      -0.326100
     28 C28         -6.5350    -2.3330     0.0990 c5         1 09H       0.147600
     29 C29         -6.2450    -0.9470    -0.5900 c5         1 09H      -0.052100
     30 H1           7.5180     0.0680     0.8240 ha         1 09H       0.114000
     31 H2           6.9040     2.4810     0.7690 ha         1 09H       0.115000
     32 H3           4.5590     3.1620     0.4410 ha         1 09H       0.146000
     33 H4           5.7670    -1.6670     0.5330 ha         1 09H       0.111000
     34 H5           3.8570    -3.1600     0.7780 h1         1 09H       0.040700
     35 H6           3.3040    -2.1090     2.0940 h1         1 09H       0.040700
     36 H7           1.7270    -4.0320     1.6590 h1         1 09H       0.059950
     37 H8           0.9510    -2.4490     1.4930 h1         1 09H       0.059950
     38 H9           1.9230    -4.1520    -0.7240 hn         1 09H       0.402000
     39 H11          0.9990    -2.5620    -2.2550 h1         1 09H       0.059950
     40 H12          0.5030    -1.5600    -0.8840 h1         1 09H       0.059950
     41 H13          2.5610    -0.6270    -1.8240 h1         1 09H       0.040700
     42 H14          3.3830    -2.1920    -1.7560 h1         1 09H       0.040700
     43 H15          1.8080     0.6400     0.1690 hn         1 09H       0.202000
     44 H16         -0.3160     4.5300    -0.6310 h4         1 09H       0.181000
     45 H17         -1.0820    -1.1500     0.8140 ha         1 09H       0.138000
     46 H18         -2.6160    -3.0950     1.0400 ha         1 09H       0.140000
     47 H19         -4.3730     1.2110    -0.7970 ha         1 09H       0.117000
     48 H20         -7.1830    -2.9790    -0.5080 h1         1 09H       0.060200
     49 H21         -7.0260    -2.1780     1.0690 h1         1 09H       0.060200
     50 H22         -6.8680    -0.1420    -0.1850 hc         1 09H       0.064700
     51 H23         -6.3990    -0.9890    -1.6740 hc         1 09H       0.064700
@<TRIPOS>BOND
     1     1     2 ar  
     2     1     6 ar  
     3     1    30 1   
     4     2     3 ar  
     5     2    31 1   
     6     3     4 ar  
     7     3    32 1   
     8     4     5 ar  
     9     4    13 1   
    10     5     6 ar  
    11     5     7 1   
    12     6    33 1   
    13     7     8 1   
    14     7    12 1   
    15     8     9 1   
    16     8    34 1   
    17     8    35 1   
    18     9    10 1   
    19     9    36 1   
    20     9    37 1   
    21    10    11 1   
    22    10    38 1   
    23    11    12 1   
    24    11    39 1   
    25    11    40 1   
    26    12    41 1   
    27    12    42 1   
    28    13    14 1   
    29    13    43 1   
    30    14    15 2   
    31    14    16 1   
    32    16    17 1   
    33    16    20 2   
    34    17    18 2   
    35    18    19 1   
    36    18    21 1   
    37    19    20 1   
    38    20    44 1   
    39    21    22 ar  
    40    21    26 ar  
    41    22    23 ar  
    42    22    45 1   
    43    23    24 ar  
    44    23    46 1   
    45    24    25 ar  
    46    24    27 1   
    47    25    26 ar  
    48    25    29 1   
    49    26    47 1   
    50    27    28 1   
    51    28    29 1   
    52    28    48 1   
    53    28    49 1   
    54    29    50 1   
    55    29    51 1   
@<TRIPOS>SUBSTRUCTURE
     1 09H         1 TEMP              0 ****  ****    0 ROOT
