@<TRIPOS>MOLECULE
09I
   52    55     1     0     0
SMALL
No Charge or Current Charge


@<TRIPOS>ATOM
      1 C5           2.3150     3.7820    -0.0530 ca         1 09I       0.220000
      2 C8           0.6570     0.5410    -0.0350 cc         1 09I      -0.003700
      3 C3           4.5290     2.8950     0.5080 ca         1 09I      -0.068000
      4 C6           1.8300     2.4700    -0.0030 ca         1 09I      -0.157800
      5 C1           2.6410     1.4030     0.2900 ca         1 09I       0.081100
      6 C17          4.1150    -2.6330    -0.5170 c3         1 09I      -0.070900
      7 C14          1.4000    -3.4570     0.8780 c3         1 09I       0.228800
      8 C9          -0.4630    -0.4200    -0.0440 ca         1 09I       0.225800
      9 C20         -5.4110     1.8550     0.1360 c2         1 09I       0.661800
     10 C19          1.6880    -2.4690    -1.4720 c3         1 09I       0.228800
     11 C4           3.6840     3.9930     0.2050 ca         1 09I      -0.176000
     12 C7           0.5300     1.9080    -0.2010 cd         1 09I      -0.201200
     13 C18          3.0800    -3.1400    -1.5490 c3         1 09I      -0.089900
     14 C2           4.0060     1.5830     0.5530 ca         1 09I      -0.123000
     15 F1           1.4950     4.8170    -0.3410 f          1 09I      -0.171000
     16 O1           1.9670     0.1980     0.2970 os         1 09I      -0.169200
     17 C12         -0.2660    -1.8560    -0.0720 ca         1 09I       0.706900
     18 N3           0.9780    -2.5060    -0.1730 nh         1 09I      -0.758300
     19 C16          3.9970    -3.2930     0.8740 c3         1 09I      -0.070900
     20 C15          2.6760    -3.0220     1.6280 c3         1 09I      -0.089900
     21 N2          -1.2880    -2.7420    -0.0600 nb         1 09I      -0.868000
     22 C11         -2.4960    -2.1960    -0.0210 ca         1 09I       0.706900
     23 N4          -3.3740    -3.2010     0.0050 nv         1 09I      -1.055900
     24 C10         -2.7580    -0.7910    -0.0230 ca         1 09I       0.080500
     25 N1          -1.7240     0.1140    -0.0320 nb         1 09I      -0.580000
     26 O2          -5.1670    -1.0040    -0.1480 o          1 09I      -0.584100
     27 N5          -4.2910     1.0900     0.0690 ns         1 09I      -0.434400
     28 N7          -6.4450     1.5980     0.8020 n2         1 09I      -0.826100
     29 N6          -5.1290     3.0620    -0.3620 nv         1 09I      -1.082200
     30 H1           5.5850     3.0630     0.7080 ha         1 09I       0.120000
     31 H2           5.1190    -2.8450    -0.9050 hc         1 09I       0.041950
     32 H3           4.0450    -1.5430    -0.4230 hc         1 09I       0.041950
     33 H4           0.6010    -3.5470     1.6270 h1         1 09I       0.055700
     34 H5           1.5390    -4.4620     0.4570 h1         1 09I       0.055700
     35 H6           1.8150    -1.4220    -1.7770 h1         1 09I       0.055700
     36 H7           1.0530    -2.9400    -2.2340 h1         1 09I       0.055700
     37 H8           4.0890     5.0010     0.1730 ha         1 09I       0.133000
     38 H9          -0.3890     2.4480    -0.4170 ha         1 09I       0.223000
     39 H10          3.4770    -2.9550    -2.5540 hc         1 09I       0.048700
     40 H11          2.9730    -4.2280    -1.4650 hc         1 09I       0.048700
     41 H12          4.6420     0.7330     0.7870 ha         1 09I       0.135000
     42 H13          4.1290    -4.3770     0.7660 hc         1 09I       0.041950
     43 H14          4.8290    -2.9440     1.4970 hc         1 09I       0.041950
     44 H15          2.6050    -1.9580     1.8850 hc         1 09I       0.048700
     45 H16          2.7140    -3.5660     2.5790 hc         1 09I       0.048700
     46 H17         -2.9870    -4.0790    -0.3140 hn         1 09I       0.518500
     47 H18         -4.3260    -2.9800    -0.2740 hn         1 09I       0.518500
     48 H19         -3.4120     1.5810     0.1110 hn         1 09I       0.351500
     49 H20         -7.0560     2.4210     0.7810 hn         1 09I       0.379400
     50 H21         -4.5240     3.0360    -1.1770 hn         1 09I       0.458000
     51 H22         -5.9280     3.6760    -0.4720 hn         1 09I       0.458000
     52 C13         -4.1860    -0.2760    -0.0290 c          1 09I       0.558600
@<TRIPOS>BOND
     1     1     4 ar  
     2     1    11 ar  
     3     1    15 1   
     4     2     8 1   
     5     2    12 2   
     6     2    16 1   
     7     3    11 ar  
     8     3    14 ar  
     9     3    30 1   
    10     4     5 ar  
    11     4    12 1   
    12     5    14 ar  
    13     5    16 1   
    14     6    13 1   
    15     6    19 1   
    16     6    31 1   
    17     6    32 1   
    18     7    18 1   
    19     7    20 1   
    20     7    33 1   
    21     7    34 1   
    22     8    17 ar  
    23     8    25 ar  
    24     9    27 1   
    25     9    28 2   
    26     9    29 1   
    27    10    13 1   
    28    10    18 1   
    29    10    35 1   
    30    10    36 1   
    31    11    37 1   
    32    12    38 1   
    33    13    39 1   
    34    13    40 1   
    35    14    41 1   
    36    17    18 1   
    37    17    21 ar  
    38    19    20 1   
    39    19    42 1   
    40    19    43 1   
    41    20    44 1   
    42    20    45 1   
    43    21    22 ar  
    44    22    23 1   
    45    22    24 ar  
    46    23    46 1   
    47    23    47 1   
    48    24    25 ar  
    49    24    52 1   
    50    26    52 2   
    51    27    48 1   
    52    27    52 1   
    53    28    49 1   
    54    29    50 1   
    55    29    51 1   
@<TRIPOS>SUBSTRUCTURE
     1 09I         1 TEMP              0 ****  ****    0 ROOT
