@<TRIPOS>MOLECULE
09I
   52    55     1     0     0
SMALL
abcg2


@<TRIPOS>ATOM
      1 C5           2.4240     3.5400    -1.4120 ca         1 09I       0.220000
      2 C8           0.6530     0.5560    -0.4520 cc         1 09I      -0.003700
      3 C3           4.2390     3.2090     0.1230 ca         1 09I      -0.068000
      4 C6           1.8200     2.3760    -0.9570 ca         1 09I      -0.157800
      5 C1           2.4720     1.6600     0.0490 ca         1 09I       0.081100
      6 C17          3.4010    -2.3150     0.8970 c3         1 09I      -0.070900
      7 C14          1.2080    -3.9780    -0.4750 c3         1 09I       0.228800
      8 C9          -0.3220    -0.5130    -0.2530 ca         1 09I       0.225800
      9 C20         -4.9090     1.9580     0.5740 c2         1 09I       0.661800
     10 C19          2.1590    -1.9160    -1.3720 c3         1 09I       0.228800
     11 C4           3.6220     3.9630    -0.8830 ca         1 09I      -0.176000
     12 C7           0.6320     1.6370    -1.2640 cd         1 09I      -0.201200
     13 C18          3.4830    -1.9130    -0.5760 c3         1 09I      -0.089900
     14 C2           3.6790     2.0390     0.6110 ca         1 09I      -0.123000
     15 F1           1.8220     4.2460    -2.3790 f          1 09I      -0.171000
     16 O1           1.7490     0.5640     0.3610 os         1 09I      -0.169200
     17 C12         -0.0730    -1.9340    -0.2510 ca         1 09I       0.706900
     18 N3           1.0500    -2.5410    -0.6780 nh         1 09I      -0.758300
     19 C16          3.1670    -3.8070     1.1490 c3         1 09I      -0.070900
     20 C15          1.7440    -4.3010     0.9110 c3         1 09I      -0.089900
     21 N2          -1.0390    -2.7390     0.1830 nb         1 09I      -0.868000
     22 C11         -2.2510    -2.2810     0.4740 ca         1 09I       0.706900
     23 N4          -3.1430    -3.1660     0.9240 nv         1 09I      -1.055900
     24 C10         -2.5340    -0.8980     0.3130 ca         1 09I       0.080500
     25 N1          -1.5390    -0.0900    -0.0080 nb         1 09I      -0.580000
     26 O2          -4.8290    -0.9540     0.8950 o          1 09I      -0.584100
     27 N5          -3.8630     1.0600     0.3820 ns         1 09I      -0.434400
     28 N7          -5.9210     1.6640     1.2850 n2         1 09I      -0.826100
     29 N6          -4.6330     3.1660    -0.0190 nv         1 09I      -1.082200
     30 H1           5.1820     3.5530     0.5260 ha         1 09I       0.120000
     31 H2           4.3570    -2.0440     1.3510 hc         1 09I       0.041950
     32 H3           2.6460    -1.7220     1.4200 hc         1 09I       0.041950
     33 H4           0.2580    -4.4790    -0.6440 h1         1 09I       0.055700
     34 H5           1.9020    -4.3370    -1.2390 h1         1 09I       0.055700
     35 H6           1.8860    -0.9160    -1.6910 h1         1 09I       0.055700
     36 H7           2.3000    -2.4730    -2.3010 h1         1 09I       0.055700
     37 H8           4.0840     4.8710    -1.2470 ha         1 09I       0.133000
     38 H9          -0.1210     1.8600    -2.0010 ha         1 09I       0.223000
     39 H10          3.9220    -0.9160    -0.6440 hc         1 09I       0.048700
     40 H11          4.1930    -2.5820    -1.0690 hc         1 09I       0.048700
     41 H12          4.1590     1.4560     1.3850 ha         1 09I       0.135000
     42 H13          3.8600    -4.3800     0.5240 hc         1 09I       0.041950
     43 H14          3.4390    -4.0340     2.1830 hc         1 09I       0.041950
     44 H15          1.0690    -3.8760     1.6590 hc         1 09I       0.048700
     45 H16          1.7110    -5.3850     1.0470 hc         1 09I       0.048700
     46 H17         -2.8940    -4.1390     0.9590 hn         1 09I       0.518500
     47 H18         -4.0970    -2.8870     1.0820 hn         1 09I       0.518500
     48 H19         -2.9710     1.4390     0.0890 hn         1 09I       0.351500
     49 H20         -6.5900     2.4260     1.2770 hn         1 09I       0.379400
     50 H21         -4.1370     3.1470    -0.8970 hn         1 09I       0.458000
     51 H22         -5.3860     3.8350    -0.0190 hn         1 09I       0.458000
     52 C13         -3.8560    -0.2920     0.5670 c          1 09I       0.558600
@<TRIPOS>BOND
     1     1     4 ar  
     2     1    11 ar  
     3     1    15 1   
     4     2     8 1   
     5     2    12 2   
     6     2    16 1   
     7     3    11 ar  
     8     3    14 ar  
     9     3    30 1   
    10     4     5 ar  
    11     4    12 1   
    12     5    14 ar  
    13     5    16 1   
    14     6    13 1   
    15     6    19 1   
    16     6    31 1   
    17     6    32 1   
    18     7    18 1   
    19     7    20 1   
    20     7    33 1   
    21     7    34 1   
    22     8    17 ar  
    23     8    25 ar  
    24     9    27 1   
    25     9    28 2   
    26     9    29 1   
    27    10    13 1   
    28    10    18 1   
    29    10    35 1   
    30    10    36 1   
    31    11    37 1   
    32    12    38 1   
    33    13    39 1   
    34    13    40 1   
    35    14    41 1   
    36    17    18 1   
    37    17    21 ar  
    38    19    20 1   
    39    19    42 1   
    40    19    43 1   
    41    20    44 1   
    42    20    45 1   
    43    21    22 ar  
    44    22    23 1   
    45    22    24 ar  
    46    23    46 1   
    47    23    47 1   
    48    24    25 ar  
    49    24    52 1   
    50    26    52 2   
    51    27    48 1   
    52    27    52 1   
    53    28    49 1   
    54    29    50 1   
    55    29    51 1   
@<TRIPOS>SUBSTRUCTURE
     1 09I         1 TEMP              0 ****  ****    0 ROOT
