@<TRIPOS>MOLECULE
09J
   54    58     1     0     0
SMALL
abcg2


@<TRIPOS>ATOM
      1 C23         -9.1880     0.8770     0.3880 cx         1 09J      -0.131900
      2 C24         -8.4500     1.9970    -0.2790 cx         1 09J      -0.131900
      3 C22         -7.8180     1.2520     0.8530 cx         1 09J       0.044700
      4 N5          -6.7590     0.3400     0.5720 ns         1 09J      -0.481900
      5 C21         -5.5180     0.7590     0.2600 c          1 09J       0.614700
      6 O2          -5.2150     1.9420     0.2030 o          1 09J      -0.590100
      7 C11         -4.5150    -0.3130    -0.0150 ca         1 09J      -0.158600
      8 C10         -3.1670    -0.0130     0.1510 ca         1 09J      -0.037000
      9 C12         -4.8640    -1.5840    -0.4620 ca         1 09J      -0.072000
     10 C13         -3.8820    -2.5300    -0.7090 ca         1 09J      -0.125000
     11 C14         -2.5320    -2.2480    -0.5290 ca         1 09J      -0.012300
     12 C20         -1.5050    -3.3080    -0.7820 c3         1 09J      -0.058800
     13 C9          -2.1820    -0.9610    -0.0970 ca         1 09J      -0.062800
     14 C4          -0.7720    -0.5900     0.1370 cc         1 09J      -0.110400
     15 C5          -0.3180    -0.2480     1.3540 cd         1 09J      -0.179800
     16 C3           0.1020    -0.4810    -1.0450 c          1 09J       0.565200
     17 O1          -0.3310    -0.6120    -2.1740 o          1 09J      -0.507000
     18 N4           1.4340    -0.1670    -0.8460 n          1 09J      -0.285100
     19 C7           2.2030     0.3890    -1.9630 c3         1 09J       0.091000
     20 C8           2.0990     1.9010    -2.0440 c3         1 09J      -0.125100
     21 N3           1.8800     0.0630     0.4260 na         1 09J      -0.176300
     22 C1           1.0560     0.0800     1.5060 cd         1 09J       0.396300
     23 N1           1.7530     0.3130     2.5910 nc         1 09J      -0.319000
     24 N2           3.0300     0.4370     2.2260 nc         1 09J      -0.318000
     25 C2           3.1300     0.2710     0.9290 cd         1 09J       0.439000
     26 C6           4.4100     0.2470     0.2200 ca         1 09J      -0.173500
     27 C15          5.2180     1.3730     0.0750 ca         1 09J       0.174000
     28 CL1          4.6650     2.8960     0.6630 cl         1 09J      -0.160000
     29 C16          6.4540     1.2970    -0.5460 ca         1 09J      -0.128000
     30 C17          6.9010     0.0720    -1.0190 ca         1 09J      -0.058000
     31 C18          6.1330    -1.0750    -0.8750 ca         1 09J      -0.158000
     32 C19          4.9100    -0.9600    -0.2530 ca         1 09J       0.208000
     33 F1           4.1440    -2.0440    -0.0990 f          1 09J      -0.160000
     34 H1         -10.0210     1.1130     1.0360 hc         1 09J       0.077950
     35 H2          -9.2930    -0.0510    -0.1600 hc         1 09J       0.077950
     36 H3          -8.0600     1.8220    -1.2730 hc         1 09J       0.077950
     37 H4          -8.7700     3.0140    -0.0920 hc         1 09J       0.077950
     38 H5          -7.7440     1.7720     1.8040 h1         1 09J       0.086700
     39 H6          -6.9120    -0.6320     0.7850 hn         1 09J       0.318500
     40 H7          -2.8760     0.9760     0.4810 ha         1 09J       0.138000
     41 H8          -5.8970    -1.8510    -0.6400 ha         1 09J       0.113000
     42 H9          -4.1750    -3.5160    -1.0470 ha         1 09J       0.118000
     43 H10         -1.0820    -3.2150    -1.7840 hc         1 09J       0.051700
     44 H11         -0.6780    -3.2560    -0.0740 hc         1 09J       0.051700
     45 H12         -1.9450    -4.3010    -0.7080 hc         1 09J       0.051700
     46 H13         -0.9490    -0.2560     2.2320 ha         1 09J       0.227000
     47 H14          3.2360     0.0660    -1.8870 h1         1 09J       0.077700
     48 H15          1.8080    -0.0770    -2.8590 h1         1 09J       0.077700
     49 H16          2.7090     2.2550    -2.8740 hc         1 09J       0.052367
     50 H17          1.0720     2.2160    -2.2210 hc         1 09J       0.052367
     51 H18          2.4580     2.3930    -1.1390 hc         1 09J       0.052367
     52 H19          7.0620     2.1830    -0.6580 ha         1 09J       0.140000
     53 H20          7.8640     0.0100    -1.5060 ha         1 09J       0.127000
     54 H21          6.4790    -2.0350    -1.2330 ha         1 09J       0.143000
@<TRIPOS>BOND
     1     1     2 1   
     2     1     3 1   
     3     1    34 1   
     4     1    35 1   
     5     2     3 1   
     6     2    36 1   
     7     2    37 1   
     8     3     4 1   
     9     3    38 1   
    10     4     5 1   
    11     4    39 1   
    12     5     6 2   
    13     5     7 1   
    14     7     8 ar  
    15     7     9 ar  
    16     8    13 ar  
    17     8    40 1   
    18     9    10 ar  
    19     9    41 1   
    20    10    11 ar  
    21    10    42 1   
    22    11    12 1   
    23    11    13 ar  
    24    12    43 1   
    25    12    44 1   
    26    12    45 1   
    27    13    14 1   
    28    14    15 2   
    29    14    16 1   
    30    15    22 1   
    31    15    46 1   
    32    16    17 2   
    33    16    18 1   
    34    18    19 1   
    35    18    21 1   
    36    19    20 1   
    37    19    47 1   
    38    19    48 1   
    39    20    49 1   
    40    20    50 1   
    41    20    51 1   
    42    21    22 1   
    43    21    25 1   
    44    22    23 2   
    45    23    24 1   
    46    24    25 2   
    47    25    26 1   
    48    26    27 ar  
    49    26    32 ar  
    50    27    28 1   
    51    27    29 ar  
    52    29    30 ar  
    53    29    52 1   
    54    30    31 ar  
    55    30    53 1   
    56    31    32 ar  
    57    31    54 1   
    58    32    33 1   
@<TRIPOS>SUBSTRUCTURE
     1 09J         1 TEMP              0 ****  ****    0 ROOT
