@<TRIPOS>MOLECULE
09J
   54    58     1     0     0
SMALL
No Charge or Current Charge


@<TRIPOS>ATOM
      1 C23         -9.3550     0.8480     0.2420 cx         1 09J      -0.131900
      2 C24         -8.6530     1.9060    -0.5740 cx         1 09J      -0.131900
      3 C22         -7.9760     1.3160     0.6390 cx         1 09J       0.044700
      4 N5          -6.8770     0.4160     0.4180 ns         1 09J      -0.481900
      5 C21         -5.5470     0.7760     0.4830 c          1 09J       0.614700
      6 O2          -5.2120     1.9240     0.7460 o          1 09J      -0.590100
      7 C11         -4.5320    -0.3180     0.2140 ca         1 09J      -0.158600
      8 C10         -3.1550    -0.0110     0.2690 ca         1 09J      -0.037000
      9 C12         -4.9130    -1.6450    -0.0960 ca         1 09J      -0.072000
     10 C13         -3.9390    -2.6270    -0.3400 ca         1 09J      -0.125000
     11 C14         -2.5700    -2.3140    -0.2810 ca         1 09J      -0.012300
     12 C20         -1.5330    -3.4020    -0.5410 c3         1 09J      -0.058800
     13 C9          -2.1770    -0.9940     0.0250 ca         1 09J      -0.062800
     14 C4          -0.7630    -0.6280     0.0890 cc         1 09J      -0.110400
     15 C5          -0.2760    -0.4010     1.3610 cd         1 09J      -0.179800
     16 C3           0.0540    -0.3560    -1.1320 c          1 09J       0.565200
     17 O1          -0.4190    -0.4270    -2.2590 o          1 09J      -0.507000
     18 N4           1.4010     0.0760    -0.9060 n          1 09J      -0.285100
     19 C7           2.2070     0.6330    -2.0250 c3         1 09J       0.091000
     20 C8           2.3200     2.1660    -1.9620 c3         1 09J      -0.125100
     21 N3           1.9690    -0.3320     0.3930 na         1 09J      -0.176300
     22 C1           1.1150    -0.1200     1.4430 cd         1 09J       0.396300
     23 N1           1.7750     0.2790     2.5130 nc         1 09J      -0.319000
     24 N2           3.0800     0.5050     2.1030 nc         1 09J      -0.318000
     25 C2           3.1640     0.2430     0.7980 cd         1 09J       0.439000
     26 C6           4.4740     0.1870     0.1240 ca         1 09J      -0.173500
     27 C15          5.3640     1.2850     0.1570 ca         1 09J       0.174000
     28 Cl1          4.9320     2.8090     0.9340 cl         1 09J      -0.160000
     29 C16          6.6190     1.2020    -0.4710 ca         1 09J      -0.128000
     30 C17          7.0120     0.0240    -1.1250 ca         1 09J      -0.058000
     31 C18          6.1440    -1.0780    -1.1440 ca         1 09J      -0.158000
     32 C19          4.8900    -0.9990    -0.5200 ca         1 09J       0.208000
     33 F1           4.0900    -2.0880    -0.5400 f          1 09J      -0.160000
     34 H1         -10.1900     1.1590     0.8650 hc         1 09J       0.077950
     35 H2          -9.4570    -0.1430    -0.1940 hc         1 09J       0.077950
     36 H3          -8.2770     1.6260    -1.5550 hc         1 09J       0.077950
     37 H4          -9.0150     2.9280    -0.5000 hc         1 09J       0.077950
     38 H5          -7.8820     1.9380     1.5320 h1         1 09J       0.086700
     39 H6          -7.0700    -0.5530     0.2020 hn         1 09J       0.318500
     40 H7          -2.8330     1.0030     0.5010 ha         1 09J       0.138000
     41 H8          -5.9590    -1.9360    -0.1530 ha         1 09J       0.113000
     42 H9          -4.2560    -3.6410    -0.5750 ha         1 09J       0.118000
     43 H10         -1.0050    -3.2240    -1.4850 hc         1 09J       0.051700
     44 H11         -0.7860    -3.4380     0.2610 hc         1 09J       0.051700
     45 H12         -1.9930    -4.3960    -0.6030 hc         1 09J       0.051700
     46 H13         -0.9020    -0.4060     2.2460 ha         1 09J       0.227000
     47 H14          3.2030     0.1840    -2.0430 h1         1 09J       0.077700
     48 H15          1.7490     0.3640    -2.9860 h1         1 09J       0.077700
     49 H16          2.9430     2.5380    -2.7840 hc         1 09J       0.052367
     50 H17          1.3280     2.6260    -2.0460 hc         1 09J       0.052367
     51 H18          2.7670     2.4900    -1.0170 hc         1 09J       0.052367
     52 H19          7.2890     2.0590    -0.4520 ha         1 09J       0.140000
     53 H20          7.9850    -0.0350    -1.6090 ha         1 09J       0.127000
     54 H21          6.4430    -1.9980    -1.6390 ha         1 09J       0.143000
@<TRIPOS>BOND
     1     1     2 1   
     2     1     3 1   
     3     1    34 1   
     4     1    35 1   
     5     2     3 1   
     6     2    36 1   
     7     2    37 1   
     8     3     4 1   
     9     3    38 1   
    10     4     5 1   
    11     4    39 1   
    12     5     6 2   
    13     5     7 1   
    14     7     8 ar  
    15     7     9 ar  
    16     8    13 ar  
    17     8    40 1   
    18     9    10 ar  
    19     9    41 1   
    20    10    11 ar  
    21    10    42 1   
    22    11    12 1   
    23    11    13 ar  
    24    12    43 1   
    25    12    44 1   
    26    12    45 1   
    27    13    14 1   
    28    14    15 2   
    29    14    16 1   
    30    15    22 1   
    31    15    46 1   
    32    16    17 2   
    33    16    18 1   
    34    18    19 1   
    35    18    21 1   
    36    19    20 1   
    37    19    47 1   
    38    19    48 1   
    39    20    49 1   
    40    20    50 1   
    41    20    51 1   
    42    21    22 1   
    43    21    25 1   
    44    22    23 2   
    45    23    24 1   
    46    24    25 2   
    47    25    26 1   
    48    26    27 ar  
    49    26    32 ar  
    50    27    28 1   
    51    27    29 ar  
    52    29    30 ar  
    53    29    52 1   
    54    30    31 ar  
    55    30    53 1   
    56    31    32 ar  
    57    31    54 1   
    58    32    33 1   
@<TRIPOS>SUBSTRUCTURE
     1 09J         1 TEMP              0 ****  ****    0 ROOT
