@<TRIPOS>MOLECULE
09K
   37    39     1     0     0
SMALL
abcg2


@<TRIPOS>ATOM
      1 C1          -5.3530     0.8750     0.1380 c3         1 09K       0.515000
      2 F1          -4.9190     1.5020    -0.9580 f          1 09K      -0.108333
      3 N1           2.5280    -1.6340    -0.0250 ns         1 09K      -0.407100
      4 O1          -5.1120    -0.4400     0.1120 os         1 09K      -0.405100
      5 C2          -3.7850    -0.8580     0.0650 ca         1 09K       0.098100
      6 F2          -4.7840     1.4850     1.1790 f          1 09K      -0.108333
      7 N2           4.8750    -1.3720    -0.0170 na         1 09K      -0.046200
      8 O2           0.9390    -0.0210    -0.0090 o          1 09K      -0.542100
      9 C3          -3.1770    -1.0470    -1.1640 ca         1 09K      -0.096500
     10 F3          -6.6630     1.0430     0.2210 f          1 09K      -0.108333
     11 N3           5.8500    -0.4550    -0.0080 nc         1 09K      -0.517800
     12 C4          -1.8750    -1.5260    -1.1980 ca         1 09K      -0.084500
     13 C5          -1.1860    -1.8170    -0.0270 ca         1 09K      -0.061300
     14 C6          -1.8260    -1.6220     1.1920 ca         1 09K      -0.084500
     15 C7          -3.1260    -1.1430     1.2480 ca         1 09K      -0.096500
     16 C8           0.2240    -2.3220    -0.0750 c3         1 09K      -0.115100
     17 C9           1.2400    -1.1950    -0.0310 c          1 09K       0.610100
     18 C10          3.6460    -0.8240    -0.0090 cc         1 09K      -0.000400
     19 C11          5.2270     0.7070     0.0090 cd         1 09K       0.303300
     20 C12          3.8250     0.5440     0.0100 cd         1 09K      -0.231000
     21 C13          5.9930     1.9640     0.0250 cx         1 09K      -0.164000
     22 C14          5.4320     3.2020    -0.6200 cx         1 09K      -0.120400
     23 C15          5.5340     3.1240     0.8670 cx         1 09K      -0.120400
     24 HN1          2.6820    -2.6310    -0.0460 hn         1 09K       0.317500
     25 H3          -3.7090    -0.8430    -2.0830 ha         1 09K       0.136500
     26 H4          -1.3990    -1.6820    -2.1580 ha         1 09K       0.120000
     27 H6          -1.3120    -1.8520     2.1170 ha         1 09K       0.120000
     28 H7          -3.6220    -1.0100     2.2000 ha         1 09K       0.136500
     29 H8           0.4180    -3.0050     0.7560 hc         1 09K       0.069200
     30 H8A          0.3930    -2.9030    -0.9860 hc         1 09K       0.069200
     31 H12          3.0700     1.3080     0.0190 ha         1 09K       0.168000
     32 H13          7.0650     1.8240    -0.0520 hc         1 09K       0.092700
     33 H14          6.1190     3.8450    -1.1530 hc         1 09K       0.073700
     34 H14A         4.4490     3.1320    -1.0680 hc         1 09K       0.073700
     35 H15          4.6220     3.0000     1.4380 hc         1 09K       0.073700
     36 H15A         6.2930     3.7130     1.3650 hc         1 09K       0.073700
     37 HN2          5.1080    -2.3520    -0.0370 hn         1 09K       0.365000
@<TRIPOS>BOND
     1     1     2 1   
     2     1     4 1   
     3     1     6 1   
     4     1    10 1   
     5     3    17 1   
     6     3    18 1   
     7     3    24 1   
     8     4     5 1   
     9     5     9 ar  
    10     5    15 ar  
    11     7    11 1   
    12     7    18 1   
    13     7    37 1   
    14     8    17 2   
    15     9    12 ar  
    16     9    25 1   
    17    11    19 2   
    18    12    13 ar  
    19    12    26 1   
    20    13    14 ar  
    21    13    16 1   
    22    14    15 ar  
    23    14    27 1   
    24    15    28 1   
    25    16    17 1   
    26    16    29 1   
    27    16    30 1   
    28    18    20 2   
    29    19    20 1   
    30    19    21 1   
    31    20    31 1   
    32    21    22 1   
    33    21    23 1   
    34    21    32 1   
    35    22    23 1   
    36    22    33 1   
    37    22    34 1   
    38    23    35 1   
    39    23    36 1   
@<TRIPOS>SUBSTRUCTURE
     1 09K         1 TEMP              0 ****  ****    0 ROOT
