@<TRIPOS>MOLECULE
09K
   37    39     1     0     0
SMALL
No Charge or Current Charge


@<TRIPOS>ATOM
      1 C1          -5.5540     0.6830     0.4230 c3         1 09K       0.515000
      2 F1          -6.1310    -0.0090    -0.5860 f          1 09K      -0.108333
      3 N1           2.2700    -1.5490    -0.0460 ns         1 09K      -0.407100
      4 O1          -4.5620    -0.1000     1.1190 os         1 09K      -0.405100
      5 C2          -3.4260    -0.6200     0.5230 ca         1 09K       0.098100
      6 F2          -5.0350     1.8200    -0.0930 f          1 09K      -0.108333
      7 N2           4.2810    -1.0660     1.3410 na         1 09K      -0.046200
      8 O2           1.4540    -0.4160    -1.8750 o          1 09K      -0.542100
      9 C3          -3.1090    -0.4420    -0.8430 ca         1 09K      -0.096500
     10 F3          -6.5460     1.0500     1.2640 f          1 09K      -0.108333
     11 N3           5.3230    -0.1500     1.4220 nc         1 09K      -0.517800
     12 C4          -1.9330    -1.0030    -1.3730 ca         1 09K      -0.084500
     13 C5          -1.0630    -1.7460    -0.5530 ca         1 09K      -0.061300
     14 C6          -1.3800    -1.9220     0.8070 ca         1 09K      -0.084500
     15 C7          -2.5540    -1.3610     1.3380 ca         1 09K      -0.096500
     16 C8           0.2130    -2.3480    -1.1330 c3         1 09K      -0.115100
     17 C9           1.3650    -1.3370    -1.0740 c          1 09K       0.610100
     18 C10          3.4010    -0.8140     0.2910 cc         1 09K      -0.000400
     19 C11          5.0650     0.6600     0.4140 cd         1 09K       0.303300
     20 C12          3.9100     0.3010    -0.3080 cd         1 09K      -0.231000
     21 C13          5.9290     1.8260     0.0950 cx         1 09K      -0.164000
     22 C14          5.3450     3.1270    -0.4140 cx         1 09K      -0.120400
     23 C15          5.9220     3.0540     0.9790 cx         1 09K      -0.120400
     24 HN1          2.0490    -2.3540     0.5270 hn         1 09K       0.317500
     25 H3          -3.7530     0.1240    -1.5090 ha         1 09K       0.136500
     26 H4          -1.6980    -0.8570    -2.4250 ha         1 09K       0.120000
     27 H6          -0.7180    -2.4910     1.4560 ha         1 09K       0.120000
     28 H7          -2.7910    -1.5020     2.3890 ha         1 09K       0.136500
     29 H8           0.4770    -3.2480    -0.5660 hc         1 09K       0.069200
     30 H8A          0.0440    -2.6220    -2.1810 hc         1 09K       0.069200
     31 H12          3.5180     0.8230    -1.1710 ha         1 09K       0.168000
     32 H13          6.8920     1.5280    -0.3120 hc         1 09K       0.092700
     33 H14          5.9070     3.6740    -1.1680 hc         1 09K       0.073700
     34 H14A         4.2650     3.2100    -0.5050 hc         1 09K       0.073700
     35 H15          5.2280     3.0750     1.8160 hc         1 09K       0.073700
     36 H15A         6.8720     3.5510     1.1630 hc         1 09K       0.073700
     37 HN2          4.2070    -1.8340     2.0060 hn         1 09K       0.365000
@<TRIPOS>BOND
     1     1     2 1   
     2     1     4 1   
     3     1     6 1   
     4     1    10 1   
     5     3    17 1   
     6     3    18 1   
     7     3    24 1   
     8     4     5 1   
     9     5     9 ar  
    10     5    15 ar  
    11     7    11 1   
    12     7    18 1   
    13     7    37 1   
    14     8    17 2   
    15     9    12 ar  
    16     9    25 1   
    17    11    19 2   
    18    12    13 ar  
    19    12    26 1   
    20    13    14 ar  
    21    13    16 1   
    22    14    15 ar  
    23    14    27 1   
    24    15    28 1   
    25    16    17 1   
    26    16    29 1   
    27    16    30 1   
    28    18    20 2   
    29    19    20 1   
    30    19    21 1   
    31    20    31 1   
    32    21    22 1   
    33    21    23 1   
    34    21    32 1   
    35    22    23 1   
    36    22    33 1   
    37    22    34 1   
    38    23    35 1   
    39    23    36 1   
@<TRIPOS>SUBSTRUCTURE
     1 09K         1 TEMP              0 ****  ****    0 ROOT
