@<TRIPOS>MOLECULE
09L
   55    59     1     0     0
SMALL
No Charge or Current Charge


@<TRIPOS>ATOM
      1 CAJ          8.5550     1.9670    -0.3040 cx         1 09L      -0.097900
      2 CAK          7.5780     2.0840    -1.4480 cx         1 09L      -0.097900
      3 CAI          7.3710     1.0210    -0.3860 cx         1 09L      -0.241700
      4 CAL          6.2230     1.1850     0.5940 c          1 09L       0.643100
      5 OAB          6.4080     1.5790     1.7390 o          1 09L      -0.614100
      6 NAE          4.9330     0.8530     0.1150 n          1 09L      -0.409800
      7 CAM          4.7390     0.1260    -1.1830 c6         1 09L       0.076500
      8 CAO          3.2900     0.1240    -1.7240 c6         1 09L       0.075500
      9 CAN          3.7910     0.7930     1.0810 c6         1 09L       0.076500
     10 CAP          2.3770     0.7510     0.4510 c6         1 09L       0.075500
     11 NAF          2.3060    -0.2120    -0.6730 n          1 09L      -0.406800
     12 CAQ          1.7570    -1.5090    -0.5480 c          1 09L       0.628700
     13 OAC          2.1560    -2.4250    -1.2560 o          1 09L      -0.578100
     14 CAR          0.5820    -1.6970     0.3760 ca         1 09L      -0.187600
     15 CAS         -0.4340    -0.7170     0.4580 ca         1 09L      -0.047000
     16 CAU          0.4490    -2.8780     1.1320 ca         1 09L       0.210000
     17 FAA          1.4000    -3.8380     1.0940 f          1 09L      -0.167000
     18 CAX         -0.6590    -3.0650     1.9740 ca         1 09L      -0.155000
     19 CAW         -1.6560    -2.0800     2.0610 ca         1 09L      -0.057000
     20 CAT         -1.5470    -0.9010     1.3010 ca         1 09L      -0.092300
     21 CAV         -2.6360     0.1710     1.3810 c3         1 09L      -0.047400
     22 CAY         -3.7460     0.0630     0.3510 cc         1 09L       0.363900
     23 CAZ         -4.8580     1.0470     0.3110 ca         1 09L      -0.117900
     24 CBB         -4.9340     2.1230     1.2270 ca         1 09L      -0.107000
     25 CBE         -5.9950     3.0420     1.1700 ca         1 09L      -0.082000
     26 CBF         -6.9970     2.9020     0.1990 ca         1 09L      -0.114000
     27 CBD         -6.9390     1.8420    -0.7190 ca         1 09L      -0.049000
     28 CBA         -5.8760     0.9160    -0.6660 ca         1 09L      -0.145600
     29 CBC         -5.8020    -0.2240    -1.6410 c          1 09L       0.553600
     30 OAD         -6.6300    -0.4230    -2.5190 o          1 09L      -0.540000
     31 NAH         -4.7070    -1.0440    -1.4650 ns         1 09L      -0.237900
     32 NAG         -3.6990    -0.9460    -0.5270 nd         1 09L      -0.408300
     33 H1           9.5420     1.5640    -0.5210 hc         1 09L       0.081700
     34 H2           8.5430     2.7500     0.4510 hc         1 09L       0.081700
     35 H3           6.9060     2.9400    -1.4530 hc         1 09L       0.081700
     36 H4           7.9080     1.7620    -2.4330 hc         1 09L       0.081700
     37 H5           7.5950    -0.0060    -0.6590 hc         1 09L       0.086700
     38 H6           5.3800     0.5580    -1.9640 h1         1 09L       0.066200
     39 H7           5.0580    -0.9160    -1.0430 h1         1 09L       0.066200
     40 H8           3.0560     1.1260    -2.1120 h1         1 09L       0.064700
     41 H9           3.2100    -0.5700    -2.5720 h1         1 09L       0.064700
     42 H10          3.9190    -0.1060     1.6990 h1         1 09L       0.066200
     43 H11          3.8380     1.6560     1.7620 h1         1 09L       0.066200
     44 H12          1.6540     0.5090     1.2410 h1         1 09L       0.064700
     45 H13          2.1220     1.7520     0.0750 h1         1 09L       0.064700
     46 H14         -0.3690     0.1850    -0.1470 ha         1 09L       0.123000
     47 H15         -0.7420    -3.9770     2.5600 ha         1 09L       0.137000
     48 H16         -2.5130    -2.2360     2.7130 ha         1 09L       0.120000
     49 H17         -3.0850     0.1510     2.3810 hc         1 09L       0.062200
     50 H18         -2.1690     1.1580     1.2880 hc         1 09L       0.062200
     51 H19         -4.1760     2.2620     1.9940 ha         1 09L       0.119000
     52 H20         -6.0400     3.8640     1.8810 ha         1 09L       0.119000
     53 H21         -7.8180     3.6150     0.1560 ha         1 09L       0.123000
     54 H22         -7.7210     1.7410    -1.4690 ha         1 09L       0.142000
     55 H23         -4.6600    -1.8150    -2.1260 hn         1 09L       0.356500
@<TRIPOS>BOND
     1     1     2 1   
     2     1     3 1   
     3     1    33 1   
     4     1    34 1   
     5     2     3 1   
     6     2    35 1   
     7     2    36 1   
     8     3     4 1   
     9     3    37 1   
    10     4     5 2   
    11     4     6 1   
    12     6     7 1   
    13     6     9 1   
    14     7     8 1   
    15     7    38 1   
    16     7    39 1   
    17     8    11 1   
    18     8    40 1   
    19     8    41 1   
    20     9    10 1   
    21     9    42 1   
    22     9    43 1   
    23    10    11 1   
    24    10    44 1   
    25    10    45 1   
    26    11    12 1   
    27    12    13 2   
    28    12    14 1   
    29    14    15 ar  
    30    14    16 ar  
    31    15    20 ar  
    32    15    46 1   
    33    16    17 1   
    34    16    18 ar  
    35    18    19 ar  
    36    18    47 1   
    37    19    20 ar  
    38    19    48 1   
    39    20    21 1   
    40    21    22 1   
    41    21    49 1   
    42    21    50 1   
    43    22    23 1   
    44    22    32 2   
    45    23    24 ar  
    46    23    28 ar  
    47    24    25 ar  
    48    24    51 1   
    49    25    26 ar  
    50    25    52 1   
    51    26    27 ar  
    52    26    53 1   
    53    27    28 ar  
    54    27    54 1   
    55    28    29 1   
    56    29    30 2   
    57    29    31 1   
    58    31    32 1   
    59    31    55 1   
@<TRIPOS>SUBSTRUCTURE
     1 09L         1 TEMP              0 ****  ****    0 ROOT
