@<TRIPOS>MOLECULE
09L
   55    59     1     0     0
SMALL
abcg2


@<TRIPOS>ATOM
      1 CAJ          8.3120     2.1500    -0.2870 cx         1 09L      -0.097900
      2 CAK          7.3530     2.9760    -1.0620 cx         1 09L      -0.097900
      3 CAI          7.0040     1.5460    -0.7300 cx         1 09L      -0.241700
      4 CAL          5.9670     1.3260     0.3170 c          1 09L       0.643100
      5 OAB          5.9230     2.0630     1.2960 o          1 09L      -0.614100
      6 NAE          5.0970     0.2970     0.1690 n          1 09L      -0.409800
      7 CAM          4.9340    -0.5590    -0.9920 c6         1 09L       0.076500
      8 CAO          3.5570    -0.3550    -1.6110 c6         1 09L       0.075500
      9 CAN          4.0650     0.0640     1.1630 c6         1 09L       0.076500
     10 CAP          2.6820     0.2800     0.5620 c6         1 09L       0.075500
     11 NAF          2.5150    -0.5490    -0.6190 n          1 09L      -0.406800
     12 CAQ          1.5920    -1.5180    -0.7630 c          1 09L       0.628700
     13 OAC          1.5810    -2.3130    -1.6910 o          1 09L      -0.578100
     14 CAR          0.5000    -1.5710     0.2620 ca         1 09L      -0.187600
     15 CAS         -0.4780    -0.5840     0.3260 ca         1 09L      -0.047000
     16 CAU          0.3820    -2.6620     1.1040 ca         1 09L       0.210000
     17 FAA          1.3310    -3.6100     1.0640 f          1 09L      -0.167000
     18 CAX         -0.6590    -2.7880     2.0000 ca         1 09L      -0.155000
     19 CAW         -1.6230    -1.7910     2.0420 ca         1 09L      -0.057000
     20 CAT         -1.5450    -0.6800     1.2090 ca         1 09L      -0.092300
     21 CAV         -2.5910     0.3940     1.2610 c3         1 09L      -0.047400
     22 CAY         -3.7470     0.1700     0.3230 cc         1 09L       0.363900
     23 CAZ         -4.8310     1.1310     0.2690 ca         1 09L      -0.117900
     24 CBB         -4.8630     2.2860     1.0600 ca         1 09L      -0.107000
     25 CBE         -5.9240     3.1610     0.9640 ca         1 09L      -0.082000
     26 CBF         -6.9760     2.9080     0.0800 ca         1 09L      -0.114000
     27 CBD         -6.9600     1.7750    -0.7060 ca         1 09L      -0.049000
     28 CBA         -5.8900     0.8840    -0.6140 ca         1 09L      -0.145600
     29 CBC         -5.8660    -0.3220    -1.4420 c          1 09L       0.553600
     30 OAD         -6.7330    -0.6400    -2.2430 o          1 09L      -0.540000
     31 NAH         -4.7620    -1.0960    -1.2450 ns         1 09L      -0.237900
     32 NAG         -3.7400    -0.8820    -0.4100 nd         1 09L      -0.408300
     33 H1           9.2010     1.7870    -0.7840 hc         1 09L       0.081700
     34 H2           8.4340     2.3610     0.7670 hc         1 09L       0.081700
     35 H3           6.8120     3.7540    -0.5410 hc         1 09L       0.081700
     36 H4           7.5720     3.1930    -2.0990 hc         1 09L       0.081700
     37 H5           7.0780     0.8510    -1.5520 hc         1 09L       0.086700
     38 H6           5.6900    -0.3640    -1.7450 h1         1 09L       0.066200
     39 H7           5.0480    -1.6020    -0.6840 h1         1 09L       0.066200
     40 H8           3.4810     0.6620    -2.0080 h1         1 09L       0.064700
     41 H9           3.4160    -1.0490    -2.4350 h1         1 09L       0.064700
     42 H10          4.1480    -0.9650     1.5270 h1         1 09L       0.066200
     43 H11          4.2040     0.7320     2.0070 h1         1 09L       0.066200
     44 H12          1.9290     0.0430     1.3090 h1         1 09L       0.064700
     45 H13          2.5560     1.3310     0.2890 h1         1 09L       0.064700
     46 H14         -0.4020     0.2780    -0.3280 ha         1 09L       0.123000
     47 H15         -0.7140    -3.6460     2.6570 ha         1 09L       0.137000
     48 H16         -2.4420    -1.8820     2.7440 ha         1 09L       0.120000
     49 H17         -2.9810     0.4810     2.2790 hc         1 09L       0.062200
     50 H18         -2.1400     1.3640     1.0330 hc         1 09L       0.062200
     51 H19         -4.0600     2.4990     1.7530 ha         1 09L       0.119000
     52 H20         -5.9420     4.0510     1.5790 ha         1 09L       0.119000
     53 H21         -7.8030     3.6020     0.0130 ha         1 09L       0.123000
     54 H22         -7.7700     1.5720    -1.3930 ha         1 09L       0.142000
     55 H23         -4.6830    -1.9470    -1.7840 hn         1 09L       0.356500
@<TRIPOS>BOND
     1     1     2 1   
     2     1     3 1   
     3     1    33 1   
     4     1    34 1   
     5     2     3 1   
     6     2    35 1   
     7     2    36 1   
     8     3     4 1   
     9     3    37 1   
    10     4     5 2   
    11     4     6 1   
    12     6     7 1   
    13     6     9 1   
    14     7     8 1   
    15     7    38 1   
    16     7    39 1   
    17     8    11 1   
    18     8    40 1   
    19     8    41 1   
    20     9    10 1   
    21     9    42 1   
    22     9    43 1   
    23    10    11 1   
    24    10    44 1   
    25    10    45 1   
    26    11    12 1   
    27    12    13 2   
    28    12    14 1   
    29    14    15 ar  
    30    14    16 ar  
    31    15    20 ar  
    32    15    46 1   
    33    16    17 1   
    34    16    18 ar  
    35    18    19 ar  
    36    18    47 1   
    37    19    20 ar  
    38    19    48 1   
    39    20    21 1   
    40    21    22 1   
    41    21    49 1   
    42    21    50 1   
    43    22    23 1   
    44    22    32 2   
    45    23    24 ar  
    46    23    28 ar  
    47    24    25 ar  
    48    24    51 1   
    49    25    26 ar  
    50    25    52 1   
    51    26    27 ar  
    52    26    53 1   
    53    27    28 ar  
    54    27    54 1   
    55    28    29 1   
    56    29    30 2   
    57    29    31 1   
    58    31    32 1   
    59    31    55 1   
@<TRIPOS>SUBSTRUCTURE
     1 09L         1 TEMP              0 ****  ****    0 ROOT
