@<TRIPOS>MOLECULE
09N
  137   137     1     0     0
SMALL
bcc


@<TRIPOS>ATOM
      1 CAR         16.3680   -10.0440     1.4030 c3         1 09N      -0.088100
      2 CAQ         15.7800    -8.6810     1.7380 c3         1 09N      -0.074400
      3 CAP         14.6610    -8.2700     0.7870 c3         1 09N      -0.075400
      4 CAO         14.0620    -6.9080     1.1140 c3         1 09N      -0.074400
      5 CAN         12.9440    -6.4950     0.1650 c3         1 09N      -0.074400
      6 CAM         12.3470    -5.1340     0.5000 c3         1 09N      -0.074400
      7 CAL         11.2200    -4.7160    -0.4350 c3         1 09N      -0.073400
      8 CAK         10.6270    -3.3580    -0.0810 c3         1 09N      -0.075400
      9 CAJ          9.4810    -2.9320    -0.9890 c3         1 09N      -0.073400
     10 CAI          8.8930    -1.5810    -0.6000 c3         1 09N      -0.075400
     11 CAH          7.7150    -1.1460    -1.4630 c3         1 09N      -0.073400
     12 CAG          7.1250     0.1850    -1.0150 c3         1 09N      -0.076400
     13 CAF          5.9000     0.6200    -1.8110 c3         1 09N      -0.071400
     14 CAE          5.3010     1.9130    -1.2700 c3         1 09N      -0.108400
     15 CAD          4.0340     2.3710    -1.9890 c3         1 09N       0.114100
     16 OAX          3.0380     1.3740    -1.9720 oh         1 09N      -0.575800
     17 CAC          3.5510     3.7280    -1.4330 c3         1 09N       0.105100
     18 OAV          4.5030     4.7200    -1.7350 oh         1 09N      -0.575800
     19 CAB          2.1430     4.1270    -1.9210 c3         1 09N       0.088700
     20 CAA          1.8460     5.6110    -1.7390 c3         1 09N       0.121400
     21 O1           1.9490     5.9240    -0.3650 os         1 09N      -0.427600
     22 C1           1.2690     7.0670     0.0320 c6         1 09N       0.312900
     23 O5          -0.1220     6.8850     0.0450 os         1 09N      -0.403600
     24 C5          -0.5800     5.8960     0.9530 c6         1 09N       0.151100
     25 C6          -2.0750     5.7480     0.7760 c3         1 09N       0.146400
     26 O6          -2.3190     5.2270    -0.5090 oh         1 09N      -0.592800
     27 C4          -0.1840     6.2250     2.3850 c6         1 09N       0.123100
     28 O4          -0.8720     7.3790     2.8020 oh         1 09N      -0.591800
     29 C3           1.3300     6.4190     2.4480 c6         1 09N       0.116100
     30 O3           1.6580     6.8030     3.7630 oh         1 09N      -0.611800
     31 C2           1.7570     7.4660     1.4280 c6         1 09N       0.092100
     32 O2           3.1550     7.5990     1.4940 oh         1 09N      -0.586800
     33 NAS          1.1370     3.3560    -1.2270 ns         1 09N      -0.572900
     34 CAT          0.0760     2.7790    -1.8190 c          1 09N       0.681100
     35 OAW         -0.1100     2.8110    -3.0270 o          1 09N      -0.598100
     36 CAU         -0.8630     2.0690    -0.8670 c3         1 09N      -0.150400
     37 CAY         -2.2360     1.7930    -1.4580 c3         1 09N      -0.063400
     38 CAZ         -3.1930     1.1870    -0.4380 c3         1 09N      -0.076400
     39 CBA         -4.5620     0.8780    -1.0300 c3         1 09N      -0.075400
     40 CBB         -5.5560     0.3280    -0.0150 c3         1 09N      -0.073400
     41 CBC         -6.9150     0.0130    -0.6290 c3         1 09N      -0.075400
     42 CBD         -7.9360    -0.5040     0.3760 c3         1 09N      -0.074400
     43 CBE         -9.2780    -0.8320    -0.2660 c3         1 09N      -0.073400
     44 CBF        -10.3290    -1.3140     0.7350 c3         1 09N      -0.042200
     45 CBG        -11.6350    -1.5990     0.0640 c2         1 09N      -0.168200
     46 CBJ        -12.2920    -2.7560     0.0010 c2         1 09N      -0.162200
     47 CBH        -11.9160    -4.0620     0.6410 c3         1 09N      -0.012000
     48 CBI        -12.9580    -4.4650     1.6460 c2         1 09N      -0.163200
     49 CBP        -13.7760    -5.5160     1.5910 c2         1 09N      -0.166200
     50 CBK        -13.8210    -6.5900     0.5500 c3         1 09N      -0.043200
     51 CBL        -13.5740    -7.9750     1.1490 c3         1 09N      -0.073400
     52 CBM        -13.6200    -9.0910     0.1140 c3         1 09N      -0.076400
     53 CBN        -13.4080   -10.4740     0.7180 c3         1 09N      -0.075400
     54 CBO        -13.4330   -11.5850    -0.3230 c3         1 09N      -0.088100
     55 H1          15.6080   -10.8260     1.4560 hc         1 09N       0.031367
     56 H2          16.7800   -10.0570     0.3920 hc         1 09N       0.031367
     57 H3          17.1710   -10.3170     2.0890 hc         1 09N       0.031367
     58 H4          15.3980    -8.6880     2.7640 hc         1 09N       0.036700
     59 H5          16.5700    -7.9240     1.7150 hc         1 09N       0.036700
     60 H6          15.0430    -8.2620    -0.2400 hc         1 09N       0.036700
     61 H7          13.8710    -9.0290     0.8090 hc         1 09N       0.036700
     62 H8          13.6810    -6.9170     2.1410 hc         1 09N       0.036700
     63 H9          14.8540    -6.1500     1.0930 hc         1 09N       0.036700
     64 H10         13.3240    -6.4830    -0.8620 hc         1 09N       0.037200
     65 H11         12.1530    -7.2530     0.1850 hc         1 09N       0.037200
     66 H12         11.9750    -5.1480     1.5310 hc         1 09N       0.036700
     67 H13         13.1390    -4.3770     0.4760 hc         1 09N       0.036700
     68 H14         11.5900    -4.6950    -1.4660 hc         1 09N       0.037700
     69 H15         10.4290    -5.4740    -0.4130 hc         1 09N       0.037700
     70 H16         10.2740    -3.3800     0.9560 hc         1 09N       0.036700
     71 H17         11.4170    -2.5990    -0.1120 hc         1 09N       0.036700
     72 H18          9.8310    -2.8950    -2.0270 hc         1 09N       0.037700
     73 H19          8.6930    -3.6920    -0.9610 hc         1 09N       0.037700
     74 H20          8.5720    -1.6210     0.4470 hc         1 09N       0.036700
     75 H21          9.6780    -0.8170    -0.6440 hc         1 09N       0.036700
     76 H22          8.0300    -1.0790    -2.5100 hc         1 09N       0.039200
     77 H23          6.9360    -1.9160    -1.4280 hc         1 09N       0.039200
     78 H24          6.8510     0.1130     0.0440 hc         1 09N       0.036200
     79 H25          7.8950     0.9630    -1.0730 hc         1 09N       0.036200
     80 H26          6.1710     0.7500    -2.8640 hc         1 09N       0.045200
     81 H27          5.1510    -0.1760    -1.7820 hc         1 09N       0.045200
     82 H28          5.0690     1.7820    -0.2040 hc         1 09N       0.048200
     83 H29          6.0490     2.7080    -1.3200 hc         1 09N       0.048200
     84 H30          4.2590     2.5200    -3.0540 h1         1 09N       0.068700
     85 H31          2.8000     1.1910    -1.0570 ho         1 09N       0.397000
     86 H32          3.5280     3.6710    -0.3370 h1         1 09N       0.077700
     87 H33          4.6430     4.7330    -2.6880 ho         1 09N       0.398000
     88 H34          2.0540     3.9090    -2.9890 h1         1 09N       0.093700
     89 H35          2.5310     6.2300    -2.3290 h1         1 09N       0.049700
     90 H36          0.8320     5.7920    -2.1120 h1         1 09N       0.049700
     91 H37          1.4390     7.8900    -0.6770 h2         1 09N       0.070700
     92 H38         -0.1280     4.9250     0.7160 h1         1 09N       0.048700
     93 H39         -2.4400     5.0750     1.5630 h1         1 09N       0.036700
     94 H40         -2.5720     6.7140     0.9230 h1         1 09N       0.036700
     95 H41         -3.2660     5.0890    -0.6000 ho         1 09N       0.407000
     96 H42         -0.4500     5.3600     3.0100 h1         1 09N       0.048700
     97 H43         -0.5000     7.6540     3.6470 ho         1 09N       0.423000
     98 H44          1.8040     5.4600     2.1940 h1         1 09N       0.062700
     99 H45          2.5660     7.1260     3.7650 ho         1 09N       0.430000
    100 H46          1.2620     8.4130     1.6800 h1         1 09N       0.063700
    101 H47          3.4020     8.4610     1.1480 ho         1 09N       0.412000
    102 H48          1.1900     3.3350    -0.2210 hn         1 09N       0.307500
    103 H49         -0.3900     1.1300    -0.5580 hc         1 09N       0.050700
    104 H50         -0.9670     2.6650     0.0440 hc         1 09N       0.050700
    105 H51         -2.6630     2.7250    -1.8360 hc         1 09N       0.057200
    106 H52         -2.1450     1.1220    -2.3160 hc         1 09N       0.057200
    107 H53         -2.7600     0.2710    -0.0210 hc         1 09N       0.032700
    108 H54         -3.3080     1.8790     0.4030 hc         1 09N       0.032700
    109 H55         -4.9730     1.7890    -1.4800 hc         1 09N       0.040200
    110 H56         -4.4470     0.1620    -1.8510 hc         1 09N       0.040200
    111 H57         -5.1460    -0.5770     0.4450 hc         1 09N       0.036200
    112 H58         -5.6820     1.0520     0.7970 hc         1 09N       0.036200
    113 H59         -7.3090     0.9140    -1.1110 hc         1 09N       0.038700
    114 H60         -6.7870    -0.7250    -1.4290 hc         1 09N       0.038700
    115 H61         -7.5420    -1.3990     0.8710 hc         1 09N       0.037200
    116 H62         -8.0800     0.2420     1.1660 hc         1 09N       0.037200
    117 H63         -9.6560     0.0560    -0.7840 hc         1 09N       0.039700
    118 H64         -9.1370    -1.5960    -1.0360 hc         1 09N       0.039700
    119 H65         -9.9550    -2.1910     1.2680 hc         1 09N       0.044200
    120 H66        -10.4740    -0.5340     1.4920 hc         1 09N       0.044200
    121 H67        -12.0740    -0.7520    -0.4570 ha         1 09N       0.115000
    122 H68        -13.2240    -2.7780    -0.5560 ha         1 09N       0.118000
    123 H69        -11.8080    -4.8250    -0.1340 hc         1 09N       0.051200
    124 H70        -10.9460    -3.9850     1.1380 hc         1 09N       0.051200
    125 H71        -13.0570    -3.7890     2.4900 ha         1 09N       0.118000
    126 H72        -14.4880    -5.6360     2.4030 ha         1 09N       0.115000
    127 H73        -14.8060    -6.5860     0.0700 hc         1 09N       0.044200
    128 H74        -13.0940    -6.4000    -0.2420 hc         1 09N       0.044200
    129 H75        -12.6010    -7.9820     1.6510 hc         1 09N       0.039200
    130 H76        -14.3200    -8.1680     1.9280 hc         1 09N       0.039200
    131 H77        -14.5840    -9.0680    -0.4070 hc         1 09N       0.037200
    132 H78        -12.8570    -8.9090    -0.6510 hc         1 09N       0.037200
    133 H79        -12.4530   -10.4930     1.2520 hc         1 09N       0.036700
    134 H80        -14.1790   -10.6590     1.4720 hc         1 09N       0.036700
    135 H81        -14.3840   -11.6010    -0.8590 hc         1 09N       0.031367
    136 H82        -12.6420   -11.4500    -1.0610 hc         1 09N       0.031367
    137 H83        -13.2960   -12.5660     0.1340 hc         1 09N       0.031367
@<TRIPOS>BOND
     1     1     2 1   
     2     1    55 1   
     3     1    56 1   
     4     1    57 1   
     5     2     3 1   
     6     2    58 1   
     7     2    59 1   
     8     3     4 1   
     9     3    60 1   
    10     3    61 1   
    11     4     5 1   
    12     4    62 1   
    13     4    63 1   
    14     5     6 1   
    15     5    64 1   
    16     5    65 1   
    17     6     7 1   
    18     6    66 1   
    19     6    67 1   
    20     7     8 1   
    21     7    68 1   
    22     7    69 1   
    23     8     9 1   
    24     8    70 1   
    25     8    71 1   
    26     9    10 1   
    27     9    72 1   
    28     9    73 1   
    29    10    11 1   
    30    10    74 1   
    31    10    75 1   
    32    11    12 1   
    33    11    76 1   
    34    11    77 1   
    35    12    13 1   
    36    12    78 1   
    37    12    79 1   
    38    13    14 1   
    39    13    80 1   
    40    13    81 1   
    41    14    15 1   
    42    14    82 1   
    43    14    83 1   
    44    15    16 1   
    45    15    17 1   
    46    15    84 1   
    47    16    85 1   
    48    17    18 1   
    49    17    19 1   
    50    17    86 1   
    51    18    87 1   
    52    19    20 1   
    53    19    33 1   
    54    19    88 1   
    55    20    21 1   
    56    20    89 1   
    57    20    90 1   
    58    21    22 1   
    59    22    23 1   
    60    22    31 1   
    61    22    91 1   
    62    23    24 1   
    63    24    25 1   
    64    24    27 1   
    65    24    92 1   
    66    25    26 1   
    67    25    93 1   
    68    25    94 1   
    69    26    95 1   
    70    27    28 1   
    71    27    29 1   
    72    27    96 1   
    73    28    97 1   
    74    29    30 1   
    75    29    31 1   
    76    29    98 1   
    77    30    99 1   
    78    31    32 1   
    79    31   100 1   
    80    32   101 1   
    81    33    34 1   
    82    33   102 1   
    83    34    35 2   
    84    34    36 1   
    85    36    37 1   
    86    36   103 1   
    87    36   104 1   
    88    37    38 1   
    89    37   105 1   
    90    37   106 1   
    91    38    39 1   
    92    38   107 1   
    93    38   108 1   
    94    39    40 1   
    95    39   109 1   
    96    39   110 1   
    97    40    41 1   
    98    40   111 1   
    99    40   112 1   
   100    41    42 1   
   101    41   113 1   
   102    41   114 1   
   103    42    43 1   
   104    42   115 1   
   105    42   116 1   
   106    43    44 1   
   107    43   117 1   
   108    43   118 1   
   109    44    45 1   
   110    44   119 1   
   111    44   120 1   
   112    45    46 2   
   113    45   121 1   
   114    46    47 1   
   115    46   122 1   
   116    47    48 1   
   117    47   123 1   
   118    47   124 1   
   119    48    49 2   
   120    48   125 1   
   121    49    50 1   
   122    49   126 1   
   123    50    51 1   
   124    50   127 1   
   125    50   128 1   
   126    51    52 1   
   127    51   129 1   
   128    51   130 1   
   129    52    53 1   
   130    52   131 1   
   131    52   132 1   
   132    53    54 1   
   133    53   133 1   
   134    53   134 1   
   135    54   135 1   
   136    54   136 1   
   137    54   137 1   
@<TRIPOS>SUBSTRUCTURE
     1 09N         1 TEMP              0 ****  ****    0 ROOT
