@<TRIPOS>MOLECULE
09N
  137   137     1     0     0
SMALL
No Charge or Current Charge


@<TRIPOS>ATOM
      1 CAR         19.8250    -7.2700     1.1630 c3         1 09N      -0.088100
      2 CAQ         18.9450    -6.0050     1.1340 c3         1 09N      -0.074400
      3 CAP         17.4720    -6.2990     0.7720 c3         1 09N      -0.075400
      4 CAO         16.5920    -5.0300     0.7460 c3         1 09N      -0.074400
      5 CAN         15.1170    -5.3200     0.3860 c3         1 09N      -0.074400
      6 CAM         14.2390    -4.0490     0.3670 c3         1 09N      -0.074400
      7 CAL         12.7610    -4.3340     0.0180 c3         1 09N      -0.073400
      8 CAK         11.8880    -3.0590     0.0100 c3         1 09N      -0.075400
      9 CAJ         10.4040    -3.3320    -0.3250 c3         1 09N      -0.073400
     10 CAI          9.5470    -2.0470    -0.3260 c3         1 09N      -0.075400
     11 CAH          8.0590    -2.2980    -0.6590 c3         1 09N      -0.073400
     12 CAG          7.2240    -0.9980    -0.6650 c3         1 09N      -0.076400
     13 CAF          5.7340    -1.2180    -1.0120 c3         1 09N      -0.071400
     14 CAE          4.9340     0.1090    -1.0430 c3         1 09N      -0.108400
     15 CAD          3.4440    -0.0340    -1.4720 c3         1 09N       0.137300
     16 OAX          2.7890    -0.8860    -0.5180 oh         1 09N      -0.638000
     17 CAC          2.6930     1.3460    -1.6000 c3         1 09N       0.128300
     18 OAV          3.4710     2.2460    -2.4210 oh         1 09N      -0.638000
     19 CAB          1.2420     1.2710    -2.1960 c3         1 09N       0.088700
     20 CAA          0.5700     2.6670    -2.3240 c3         1 09N       0.144600
     21 O1           0.4100     3.2310    -1.0050 os         1 09N      -0.474000
     22 C1          -0.2140     4.5290    -0.9350 c6         1 09N       0.359300
     23 O5          -1.5790     4.4470    -1.4010 os         1 09N      -0.450000
     24 C5          -2.4430     3.6100    -0.5860 c6         1 09N       0.174300
     25 C6          -3.8420     3.4940    -1.2770 c3         1 09N       0.169600
     26 O6          -3.7790     2.9430    -2.6090 oh         1 09N      -0.715000
     27 C4          -2.5390     4.1590     0.8750 c6         1 09N       0.146300
     28 O4          -3.1650     5.4570     0.9470 oh         1 09N      -0.714000
     29 C3          -1.1000     4.2530     1.4620 c6         1 09N       0.139300
     30 O3          -1.1300     4.8440     2.7760 oh         1 09N      -0.674000
     31 C2          -0.1580     5.0810     0.5300 c6         1 09N       0.115300
     32 O2           1.1910     5.0620     1.0580 oh         1 09N      -0.709000
     33 NAS          0.3420     0.3600    -1.4650 ns         1 09N      -0.505900
     34 CAT         -0.6850    -0.3540    -2.0390 c          1 09N       0.614100
     35 OAW         -0.8750    -0.3680    -3.2470 o          1 09N      -0.598100
     36 CAU         -1.5590    -1.1480    -1.0590 c3         1 09N      -0.150400
     37 CAY         -2.9680    -0.5170    -0.9380 c3         1 09N      -0.063400
     38 CAZ         -3.8800    -1.2130     0.0940 c3         1 09N      -0.076400
     39 CBA         -5.2650    -0.5350     0.2040 c3         1 09N      -0.075400
     40 CBB         -6.1840    -1.1780     1.2660 c3         1 09N      -0.073400
     41 CBC         -7.5520    -0.4670     1.3780 c3         1 09N      -0.075400
     42 CBD         -8.4640    -1.0650     2.4730 c3         1 09N      -0.074400
     43 CBE         -9.8130    -0.3230     2.6030 c3         1 09N      -0.073400
     44 CBF        -10.7110    -0.8810     3.7280 c3         1 09N      -0.042200
     45 CBG        -12.0060    -0.1000     3.8610 c2         1 09N      -0.218200
     46 CBJ        -13.2180    -0.4450     3.3890 c2         1 09N      -0.212200
     47 CBH        -13.5670    -1.6870     2.5870 c3         1 09N      -0.012000
     48 CBI        -14.6760    -1.4040     1.5870 c2         1 09N      -0.213200
     49 CBP        -14.5990    -1.4690     0.2440 c2         1 09N      -0.216200
     50 CBK        -13.3710    -1.7940    -0.5860 c3         1 09N      -0.043200
     51 CBL        -13.2320    -3.3090    -0.8480 c3         1 09N      -0.073400
     52 CBM        -11.9790    -3.6720    -1.6760 c3         1 09N      -0.076400
     53 CBN        -11.8400    -5.1900    -1.9260 c3         1 09N      -0.075400
     54 CBO        -10.5890    -5.5580    -2.7460 c3         1 09N      -0.088100
     55 H1          19.4540    -7.9850     1.9080 hc         1 09N       0.031367
     56 H2          19.8300    -7.7620     0.1830 hc         1 09N       0.031367
     57 H3          20.8580    -7.0110     1.4210 hc         1 09N       0.031367
     58 H4          18.9890    -5.5190     2.1160 hc         1 09N       0.036700
     59 H5          19.3640    -5.2970     0.4080 hc         1 09N       0.036700
     60 H6          17.4330    -6.7850    -0.2110 hc         1 09N       0.036700
     61 H7          17.0580    -7.0100     1.4990 hc         1 09N       0.036700
     62 H8          16.6320    -4.5440     1.7290 hc         1 09N       0.036700
     63 H9          17.0060    -4.3190     0.0200 hc         1 09N       0.036700
     64 H10         15.0750    -5.8020    -0.5990 hc         1 09N       0.037200
     65 H11         14.7030    -6.0330     1.1100 hc         1 09N       0.037200
     66 H12         14.2890    -3.5640     1.3500 hc         1 09N       0.036700
     67 H13         14.6500    -3.3390    -0.3620 hc         1 09N       0.036700
     68 H14         12.7080    -4.8140    -0.9670 hc         1 09N       0.037700
     69 H15         12.3500    -5.0470     0.7450 hc         1 09N       0.037700
     70 H16         11.9510    -2.5760     0.9930 hc         1 09N       0.036700
     71 H17         12.2970    -2.3500    -0.7210 hc         1 09N       0.036700
     72 H18         10.3390    -3.8110    -1.3100 hc         1 09N       0.037700
     73 H19          9.9930    -4.0400     0.4050 hc         1 09N       0.037700
     74 H20          9.6170    -1.5680     0.6590 hc         1 09N       0.036700
     75 H21          9.9630    -1.3400    -1.0550 hc         1 09N       0.036700
     76 H22          7.9850    -2.7790    -1.6430 hc         1 09N       0.039200
     77 H23          7.6360    -2.9970     0.0730 hc         1 09N       0.039200
     78 H24          7.2960    -0.5210     0.3210 hc         1 09N       0.036200
     79 H25          7.6610    -0.2990    -1.3890 hc         1 09N       0.036200
     80 H26          5.6610    -1.7060    -1.9920 hc         1 09N       0.045200
     81 H27          5.2930    -1.9040    -0.2780 hc         1 09N       0.045200
     82 H28          4.9860     0.5890    -0.0580 hc         1 09N       0.048200
     83 H29          5.4470     0.7820    -1.7400 hc         1 09N       0.048200
     84 H30          3.4220    -0.5140    -2.4610 h1         1 09N       0.068700
     85 H31          3.2050    -0.7180     0.3540 ho         1 09N       0.436000
     86 H32          2.6130     1.7670    -0.5880 h1         1 09N       0.077700
     87 H33          3.6850     1.7800    -3.2590 ho         1 09N       0.437000
     88 H34          1.3450     0.8750    -3.2150 h1         1 09N       0.093700
     89 H35          1.1820     3.3240    -2.9560 h1         1 09N       0.049700
     90 H36         -0.4050     2.5490    -2.8150 h1         1 09N       0.049700
     91 H37          0.3410     5.2240    -1.5840 h2         1 09N       0.070700
     92 H38         -2.0120     2.6000    -0.5490 h1         1 09N       0.048700
     93 H39         -4.4830     2.8670    -0.6430 h1         1 09N       0.036700
     94 H40         -4.2950     4.4950    -1.3080 h1         1 09N       0.036700
     95 H41         -4.6730     3.0510    -3.0080 ho         1 09N       0.506000
     96 H42         -3.1100     3.4360     1.4770 h1         1 09N       0.048700
     97 H43         -2.8580     5.8250     1.8110 ho         1 09N       0.522000
     98 H44         -0.7000     3.2290     1.5260 h1         1 09N       0.062700
     99 H45         -0.1970     5.1040     2.9610 ho         1 09N       0.469000
    100 H46         -0.5260     6.1170     0.5010 h1         1 09N       0.063700
    101 H47          1.6250     4.2700     0.6580 ho         1 09N       0.511000
    102 H48          0.4570     0.2730    -0.4620 hn         1 09N       0.307500
    103 H49         -1.6680    -2.1730    -1.4320 hc         1 09N       0.050700
    104 H50         -1.0920    -1.1640    -0.0670 hc         1 09N       0.050700
    105 H51         -2.8620     0.5370    -0.6570 hc         1 09N       0.057200
    106 H52         -3.4560    -0.5330    -1.9220 hc         1 09N       0.057200
    107 H53         -4.0110    -2.2660    -0.1860 hc         1 09N       0.032700
    108 H54         -3.3910    -1.1990     1.0770 hc         1 09N       0.032700
    109 H55         -5.1250     0.5250     0.4500 hc         1 09N       0.040200
    110 H56         -5.7630    -0.5740    -0.7730 hc         1 09N       0.040200
    111 H57         -6.3430    -2.2350     1.0180 hc         1 09N       0.036200
    112 H58         -5.6820    -1.1480     2.2420 hc         1 09N       0.036200
    113 H59         -7.3860     0.5960     1.5930 hc         1 09N       0.038700
    114 H60         -8.0670    -0.5210     0.4100 hc         1 09N       0.038700
    115 H61         -8.6520    -2.1230     2.2500 hc         1 09N       0.037200
    116 H62         -7.9380    -1.0280     3.4360 hc         1 09N       0.037200
    117 H63         -9.6220     0.7410     2.7960 hc         1 09N       0.039700
    118 H64        -10.3550    -0.3840     1.6500 hc         1 09N       0.039700
    119 H65        -10.9080    -1.9430     3.5350 hc         1 09N       0.044200
    120 H66        -10.1630    -0.8450     4.6790 hc         1 09N       0.044200
    121 H67        -11.8960     0.8330     4.4190 ha         1 09N       0.165000
    122 H68        -14.0680     0.2160     3.5720 ha         1 09N       0.168000
    123 H69        -12.6800    -2.0930     2.0880 hc         1 09N       0.051200
    124 H70        -13.9050    -2.4740     3.2750 hc         1 09N       0.051200
    125 H71        -15.6320    -1.1540     2.0540 ha         1 09N       0.168000
    126 H72        -15.4880    -1.2570    -0.3560 ha         1 09N       0.165000
    127 H73        -13.4220    -1.2630    -1.5460 hc         1 09N       0.044200
    128 H74        -12.4630    -1.4300    -0.0880 hc         1 09N       0.044200
    129 H75        -13.1910    -3.8360     0.1150 hc         1 09N       0.039200
    130 H76        -14.1280    -3.6670    -1.3720 hc         1 09N       0.039200
    131 H77        -12.0200    -3.1500    -2.6420 hc         1 09N       0.037200
    132 H78        -11.0840    -3.3090    -1.1530 hc         1 09N       0.037200
    133 H79        -11.8020    -5.7160    -0.9620 hc         1 09N       0.036700
    134 H80        -12.7310    -5.5550    -2.4540 hc         1 09N       0.036700
    135 H81        -10.6190    -5.0830    -3.7350 hc         1 09N       0.031367
    136 H82         -9.6770    -5.2300    -2.2300 hc         1 09N       0.031367
    137 H83        -10.5310    -6.6450    -2.8880 hc         1 09N       0.031367
@<TRIPOS>BOND
     1     1     2 1   
     2     1    55 1   
     3     1    56 1   
     4     1    57 1   
     5     2     3 1   
     6     2    58 1   
     7     2    59 1   
     8     3     4 1   
     9     3    60 1   
    10     3    61 1   
    11     4     5 1   
    12     4    62 1   
    13     4    63 1   
    14     5     6 1   
    15     5    64 1   
    16     5    65 1   
    17     6     7 1   
    18     6    66 1   
    19     6    67 1   
    20     7     8 1   
    21     7    68 1   
    22     7    69 1   
    23     8     9 1   
    24     8    70 1   
    25     8    71 1   
    26     9    10 1   
    27     9    72 1   
    28     9    73 1   
    29    10    11 1   
    30    10    74 1   
    31    10    75 1   
    32    11    12 1   
    33    11    76 1   
    34    11    77 1   
    35    12    13 1   
    36    12    78 1   
    37    12    79 1   
    38    13    14 1   
    39    13    80 1   
    40    13    81 1   
    41    14    15 1   
    42    14    82 1   
    43    14    83 1   
    44    15    16 1   
    45    15    17 1   
    46    15    84 1   
    47    16    85 1   
    48    17    18 1   
    49    17    19 1   
    50    17    86 1   
    51    18    87 1   
    52    19    20 1   
    53    19    33 1   
    54    19    88 1   
    55    20    21 1   
    56    20    89 1   
    57    20    90 1   
    58    21    22 1   
    59    22    23 1   
    60    22    31 1   
    61    22    91 1   
    62    23    24 1   
    63    24    25 1   
    64    24    27 1   
    65    24    92 1   
    66    25    26 1   
    67    25    93 1   
    68    25    94 1   
    69    26    95 1   
    70    27    28 1   
    71    27    29 1   
    72    27    96 1   
    73    28    97 1   
    74    29    30 1   
    75    29    31 1   
    76    29    98 1   
    77    30    99 1   
    78    31    32 1   
    79    31   100 1   
    80    32   101 1   
    81    33    34 1   
    82    33   102 1   
    83    34    35 2   
    84    34    36 1   
    85    36    37 1   
    86    36   103 1   
    87    36   104 1   
    88    37    38 1   
    89    37   105 1   
    90    37   106 1   
    91    38    39 1   
    92    38   107 1   
    93    38   108 1   
    94    39    40 1   
    95    39   109 1   
    96    39   110 1   
    97    40    41 1   
    98    40   111 1   
    99    40   112 1   
   100    41    42 1   
   101    41   113 1   
   102    41   114 1   
   103    42    43 1   
   104    42   115 1   
   105    42   116 1   
   106    43    44 1   
   107    43   117 1   
   108    43   118 1   
   109    44    45 1   
   110    44   119 1   
   111    44   120 1   
   112    45    46 2   
   113    45   121 1   
   114    46    47 1   
   115    46   122 1   
   116    47    48 1   
   117    47   123 1   
   118    47   124 1   
   119    48    49 2   
   120    48   125 1   
   121    49    50 1   
   122    49   126 1   
   123    50    51 1   
   124    50   127 1   
   125    50   128 1   
   126    51    52 1   
   127    51   129 1   
   128    51   130 1   
   129    52    53 1   
   130    52   131 1   
   131    52   132 1   
   132    53    54 1   
   133    53   133 1   
   134    53   134 1   
   135    54   135 1   
   136    54   136 1   
   137    54   137 1   
@<TRIPOS>SUBSTRUCTURE
     1 09N         1 TEMP              0 ****  ****    0 ROOT
