@<TRIPOS>MOLECULE
09O
   28    29     1     0     0
SMALL
abcg2


@<TRIPOS>ATOM
      1 C1          -1.0920     0.8810    -1.0790 c3         1 09O       0.196800
      2 C2          -1.9180     1.5770     0.0070 c3         1 09O       0.133800
      3 N1          -3.0980     0.8700     0.4610 n7         1 09O      -0.854400
      4 C3          -2.8970    -0.5150     0.8510 c3         1 09O       0.160800
      5 C4          -2.4400    -1.4800    -0.2530 c3         1 09O      -0.128400
      6 C5          -0.9320    -1.5360    -0.4640 c3         1 09O       0.235800
      7 N2          -0.3090    -0.2310    -0.5840 nh         1 09O      -0.834400
      8 C6           3.6510     0.1630     0.5310 ca         1 09O       0.275900
      9 N3           3.1310    -1.0440     0.3470 nb         1 09O      -0.636000
     10 C7           1.8630    -1.1530    -0.0170 ca         1 09O       0.257900
     11 C8           0.9970    -0.0570    -0.2190 ca         1 09O       0.297000
     12 C9           1.5730     1.2110    -0.0260 ca         1 09O      -0.165000
     13 C10          2.9000     1.3140     0.3460 ca         1 09O      -0.117000
     14 H1          -1.7510     0.5290    -1.8760 h1         1 09O       0.049700
     15 H2          -0.4290     1.6020    -1.5610 h1         1 09O       0.049700
     16 H3          -1.2710     1.7730     0.8690 h1         1 09O       0.058700
     17 H4          -2.2400     2.5520    -0.3680 h1         1 09O       0.058700
     18 H5          -3.8020     0.9040    -0.2660 hn         1 09O       0.404000
     19 H7          -2.1850    -0.5440     1.6830 h1         1 09O       0.056700
     20 H8          -3.8470    -0.8760     1.2510 h1         1 09O       0.056700
     21 H9          -2.7480    -2.4950     0.0080 hc         1 09O       0.047700
     22 H10         -2.9640    -1.2430    -1.1830 hc         1 09O       0.047700
     23 H11         -0.5040    -2.0400     0.4060 h1         1 09O       0.042200
     24 H12         -0.7090    -2.1720    -1.3310 h1         1 09O       0.042200
     25 H14          1.5090    -2.1650    -0.1730 h4         1 09O       0.014100
     26 H15          0.9930     2.1160    -0.1420 ha         1 09O       0.115000
     27 H16          3.3450     2.2880     0.5040 ha         1 09O       0.117000
     28 H13          4.6930     0.2140     0.8260 h4         1 09O       0.019100
@<TRIPOS>BOND
     1     1     2 1   
     2     1     7 1   
     3     1    14 1   
     4     1    15 1   
     5     2     3 1   
     6     2    16 1   
     7     2    17 1   
     8     3     4 1   
     9     3    18 1   
    10     4     5 1   
    11     4    19 1   
    12     4    20 1   
    13     5     6 1   
    14     5    21 1   
    15     5    22 1   
    16     6     7 1   
    17     6    23 1   
    18     6    24 1   
    19     7    11 1   
    20     8     9 ar  
    21     8    13 ar  
    22     8    28 1   
    23     9    10 ar  
    24    10    11 ar  
    25    10    25 1   
    26    11    12 ar  
    27    12    13 ar  
    28    12    26 1   
    29    13    27 1   
@<TRIPOS>SUBSTRUCTURE
     1 09O         1 TEMP              0 ****  ****    0 ROOT
