@<TRIPOS>MOLECULE
09O
   28    29     1     0     0
SMALL
No Charge or Current Charge


@<TRIPOS>ATOM
      1 C1          -1.0820     0.9100    -1.0710 c3         1 09O       0.196800
      2 C2          -2.0410     1.6240    -0.0700 c3         1 09O       0.133800
      3 N1          -3.2720     0.8450     0.2450 n7         1 09O      -0.854400
      4 C3          -3.0830    -0.4870     0.8610 c3         1 09O       0.160800
      5 C4          -2.5070    -1.4970    -0.1550 c3         1 09O      -0.128400
      6 C5          -0.9640    -1.5120    -0.2470 c3         1 09O       0.235800
      7 N2          -0.2900    -0.2110    -0.4860 nh         1 09O      -0.834400
      8 C6           3.8290     0.1450     0.3560 ca         1 09O       0.275900
      9 N3           3.3480    -1.0680    -0.0010 nb         1 09O      -0.636000
     10 C7           2.0180    -1.1600    -0.2690 ca         1 09O       0.257900
     11 C8           1.1040    -0.0650    -0.2020 ca         1 09O       0.297000
     12 C9           1.6370     1.1860     0.1800 ca         1 09O      -0.165000
     13 C10          3.0140     1.2870     0.4590 ca         1 09O      -0.117000
     14 H1          -1.6630     0.5510    -1.9320 h1         1 09O       0.049700
     15 H2          -0.3980     1.6660    -1.4790 h1         1 09O       0.049700
     16 H3          -1.4810     1.8500     0.8480 h1         1 09O       0.058700
     17 H4          -2.3260     2.5890    -0.5120 h1         1 09O       0.058700
     18 H5          -3.8100     0.7190    -0.6210 hn         1 09O       0.404000
     19 H7          -2.4370    -0.4340     1.7490 h1         1 09O       0.056700
     20 H8          -4.0590    -0.8670     1.1960 h1         1 09O       0.056700
     21 H9          -2.8250    -2.5020     0.1470 hc         1 09O       0.047700
     22 H10         -2.9440    -1.3310    -1.1470 hc         1 09O       0.047700
     23 H11         -0.5890    -1.9300     0.6970 h1         1 09O       0.042200
     24 H12         -0.6810    -2.2160    -1.0420 h1         1 09O       0.042200
     25 H14          1.6720    -2.1510    -0.5570 h4         1 09O       0.014100
     26 H15          1.0040     2.0620     0.2750 ha         1 09O       0.115000
     27 H16          3.4490     2.2370     0.7570 ha         1 09O       0.117000
     28 H13          4.8960     0.2030     0.5690 h4         1 09O       0.019100
@<TRIPOS>BOND
     1     1     2 1   
     2     1     7 1   
     3     1    14 1   
     4     1    15 1   
     5     2     3 1   
     6     2    16 1   
     7     2    17 1   
     8     3     4 1   
     9     3    18 1   
    10     4     5 1   
    11     4    19 1   
    12     4    20 1   
    13     5     6 1   
    14     5    21 1   
    15     5    22 1   
    16     6     7 1   
    17     6    23 1   
    18     6    24 1   
    19     7    11 1   
    20     8     9 ar  
    21     8    13 ar  
    22     8    28 1   
    23     9    10 ar  
    24    10    11 ar  
    25    10    25 1   
    26    11    12 ar  
    27    12    13 ar  
    28    12    26 1   
    29    13    27 1   
@<TRIPOS>SUBSTRUCTURE
     1 09O         1 TEMP              0 ****  ****    0 ROOT
