@<TRIPOS>MOLECULE
09P
   35    36     1     0     0
SMALL
No Charge or Current Charge


@<TRIPOS>ATOM
      1 C1           2.4170     2.0700     0.0160 c3         1 09P       0.128800
      2 N1           3.5100     1.3130     0.7060 n7         1 09P      -0.867400
      3 C2           3.1000     0.0050     1.2730 c3         1 09P       0.163800
      4 C3           3.2240    -1.1710     0.2710 c3         1 09P      -0.098400
      5 C4           2.8150    -0.8700    -1.1850 c3         1 09P       0.224800
      6 N2           1.6230    -0.0020    -1.3050 nh         1 09P      -0.801400
      7 C5           1.9430     1.4530    -1.3420 c3         1 09P       0.217800
      8 C6          -2.2170    -1.5460    -0.4880 ca         1 09P       0.195900
      9 C7          -1.9680    -0.1730    -0.2300 ca         1 09P       0.139100
     10 C8          -0.6930     0.3510    -0.5020 ca         1 09P      -0.214000
     11 C9           0.3090    -0.4970    -1.0220 ca         1 09P       0.319000
     12 C10         -0.0500    -1.8620    -1.2410 ca         1 09P       0.231900
     13 N3          -1.2780    -2.3850    -0.9850 nb         1 09P      -0.614000
     14 C11         -4.2540     0.2330     0.5910 c3         1 09P       0.165600
     15 C12         -5.0370     1.4380     1.1330 c3         1 09P      -0.095100
     16 H1           1.5480     2.1540     0.6820 h1         1 09P       0.037200
     17 H2           2.7540     3.0950    -0.1900 h1         1 09P       0.037200
     18 H3           3.8110     1.8960     1.4980 hn         1 09P       0.412000
     19 H5           3.7250    -0.2350     2.1430 h1         1 09P       0.033200
     20 H6           2.0640     0.0600     1.6370 h1         1 09P       0.033200
     21 H7           4.2600    -1.5280     0.2670 hc         1 09P       0.048200
     22 H8           2.6140    -2.0010     0.6460 hc         1 09P       0.048200
     23 H9           3.6680    -0.3780    -1.6730 h1         1 09P       0.054200
     24 H10          2.6760    -1.8130    -1.7300 h1         1 09P       0.054200
     25 H11          1.0840     2.0270    -1.7140 h1         1 09P       0.058700
     26 H12          2.7410     1.6220    -2.0780 h1         1 09P       0.058700
     27 H13         -3.1890    -1.9960    -0.2930 h4         1 09P       0.020100
     28 H14         -0.5030     1.3970    -0.2950 ha         1 09P       0.127000
     29 H15          0.6710    -2.5690    -1.6460 h4         1 09P       0.018100
     30 H16         -4.7540    -0.1530    -0.3070 h1         1 09P       0.035700
     31 H17         -4.2310    -0.5600     1.3500 h1         1 09P       0.035700
     32 H18         -5.0840     2.2380     0.3850 hc         1 09P       0.046700
     33 H19         -6.0630     1.1430     1.3850 hc         1 09P       0.046700
     34 H20         -4.5610     1.8320     2.0390 hc         1 09P       0.046700
     35 O1          -2.9250     0.6830     0.2810 os         1 09P      -0.349100
@<TRIPOS>BOND
     1     1     2 1   
     2     1     7 1   
     3     1    16 1   
     4     1    17 1   
     5     2     3 1   
     6     2    18 1   
     7     3     4 1   
     8     3    19 1   
     9     3    20 1   
    10     4     5 1   
    11     4    21 1   
    12     4    22 1   
    13     5     6 1   
    14     5    23 1   
    15     5    24 1   
    16     6     7 1   
    17     6    11 1   
    18     7    25 1   
    19     7    26 1   
    20     8     9 ar  
    21     8    13 ar  
    22     8    27 1   
    23     9    10 ar  
    24     9    35 1   
    25    10    11 ar  
    26    10    28 1   
    27    11    12 ar  
    28    12    13 ar  
    29    12    29 1   
    30    14    15 1   
    31    14    30 1   
    32    14    31 1   
    33    14    35 1   
    34    15    32 1   
    35    15    33 1   
    36    15    34 1   
@<TRIPOS>SUBSTRUCTURE
     1 09P         1 TEMP              0 ****  ****    0 ROOT
