@<TRIPOS>MOLECULE
09P
   35    36     1     0     0
SMALL
bcc


@<TRIPOS>ATOM
      1 C1           2.3250     1.9390     0.2270 c3         1 09P       0.128800
      2 N1           3.4660     1.1610     0.6820 n7         1 09P      -0.812200
      3 C2           3.1220    -0.1930     1.0970 c3         1 09P       0.163800
      4 C3           3.2670    -1.2310    -0.0130 c3         1 09P      -0.098400
      5 C4           2.7110    -0.7680    -1.3650 c3         1 09P       0.224800
      6 N2           1.5550     0.1070    -1.2790 nh         1 09P      -0.663000
      7 C5           1.8710     1.5190    -1.1640 c3         1 09P       0.217800
      8 C6          -2.0920    -1.4860    -0.1360 ca         1 09P       0.261200
      9 C7          -1.9520    -0.1010    -0.1600 ca         1 09P       0.073800
     10 C8          -0.7270     0.4490    -0.5200 ca         1 09P      -0.232000
     11 C9           0.3430    -0.3810    -0.8700 ca         1 09P       0.115300
     12 C10          0.0900    -1.7710    -0.8010 ca         1 09P       0.297200
     13 N3          -1.0740    -2.2790    -0.4530 nb         1 09P      -0.614000
     14 C11         -4.1980     0.2740     0.5470 c3         1 09P       0.142400
     15 C12         -5.1010     1.4560     0.8050 c3         1 09P      -0.095100
     16 H1           1.4780     1.8740     0.9270 h1         1 09P       0.037200
     17 H2           2.6150     2.9910     0.1810 h1         1 09P       0.037200
     18 H3           3.8840     1.6450     1.4640 hn         1 09P       0.356800
     19 H5           3.7780    -0.4820     1.9200 h1         1 09P       0.033200
     20 H6           2.0980    -0.2350     1.5000 h1         1 09P       0.033200
     21 H7           4.3200    -1.4830    -0.1570 hc         1 09P       0.048200
     22 H8           2.7750    -2.1490     0.3160 hc         1 09P       0.048200
     23 H9           3.4790    -0.2050    -1.8930 h1         1 09P       0.054200
     24 H10          2.4880    -1.6280    -2.0000 h1         1 09P       0.054200
     25 H11          1.0180     2.1230    -1.4770 h1         1 09P       0.058700
     26 H12          2.6680     1.7320    -1.8780 h1         1 09P       0.058700
     27 H13         -3.0180    -1.9720     0.1460 h4         1 09P       0.020100
     28 H14         -0.6350     1.5260    -0.5160 ha         1 09P       0.145000
     29 H15          0.8660    -2.4890    -1.0360 h4         1 09P       0.018100
     30 H16         -4.6190    -0.3620    -0.2390 h1         1 09P       0.035700
     31 H17         -4.1000    -0.3370     1.4500 h1         1 09P       0.035700
     32 H18         -5.2340     2.0590    -0.0940 hc         1 09P       0.046700
     33 H19         -6.0820     1.1010     1.1170 hc         1 09P       0.046700
     34 H20         -4.7070     2.0930     1.5970 hc         1 09P       0.046700
     35 O1          -2.9260     0.7720     0.1500 os         1 09P      -0.325900
@<TRIPOS>BOND
     1     1     2 1   
     2     1     7 1   
     3     1    16 1   
     4     1    17 1   
     5     2     3 1   
     6     2    18 1   
     7     3     4 1   
     8     3    19 1   
     9     3    20 1   
    10     4     5 1   
    11     4    21 1   
    12     4    22 1   
    13     5     6 1   
    14     5    23 1   
    15     5    24 1   
    16     6     7 1   
    17     6    11 1   
    18     7    25 1   
    19     7    26 1   
    20     8     9 ar  
    21     8    13 ar  
    22     8    27 1   
    23     9    10 ar  
    24     9    35 1   
    25    10    11 ar  
    26    10    28 1   
    27    11    12 ar  
    28    12    13 ar  
    29    12    29 1   
    30    14    15 1   
    31    14    30 1   
    32    14    31 1   
    33    14    35 1   
    34    15    32 1   
    35    15    33 1   
    36    15    34 1   
@<TRIPOS>SUBSTRUCTURE
     1 09P         1 TEMP              0 ****  ****    0 ROOT
