@<TRIPOS>MOLECULE
09Q
   38    40     1     0     0
SMALL
bcc


@<TRIPOS>ATOM
      1 C1           2.7800    -0.0860    -0.0010 cp         1 09Q      -0.035000
      2 C2           2.8830    -1.3320    -0.6210 ca         1 09Q      -0.116000
      3 C3           4.0260    -2.1040    -0.4760 ca         1 09Q      -0.129500
      4 C4           5.0880    -1.6430     0.2910 ca         1 09Q      -0.124000
      5 C5           4.9970    -0.4050     0.9130 ca         1 09Q      -0.129500
      6 C6           3.8530     0.3670     0.7690 ca         1 09Q      -0.116000
      7 C7          -0.6150     2.3410    -0.4670 ca         1 09Q       0.330200
      8 C8           1.6550     2.1260    -0.2840 ca         1 09Q       0.359200
      9 C9           1.5680     0.7390    -0.1630 cp         1 09Q      -0.108300
     10 C10          0.3050     0.1640    -0.1910 ca         1 09Q      -0.169000
     11 C11         -0.8420     0.9550    -0.3570 ca         1 09Q       0.093300
     12 C12         -3.2880     1.2010    -0.1800 c3         1 09Q       0.236800
     13 C13         -4.3150     0.5390     0.7370 c3         1 09Q      -0.126400
     14 C14         -4.9370    -0.7500     0.1970 c3         1 09Q       0.166800
     15 C15         -2.7450    -1.9270     0.2100 c3         1 09Q       0.148800
     16 C16         -2.2980    -0.9490    -0.8720 c3         1 09Q       0.220800
     17 N1          -2.0980     0.4060    -0.3970 nh         1 09Q      -0.705000
     18 N2          -4.1920    -1.9860     0.3730 n7         1 09Q      -0.818200
     19 N3           0.5860     2.8930    -0.4250 nb         1 09Q      -0.639000
     20 H1           2.0710    -1.6960    -1.2390 ha         1 09Q       0.132500
     21 H2           4.0900    -3.0640    -0.9710 ha         1 09Q       0.131500
     22 H3           5.9810    -2.2450     0.4030 ha         1 09Q       0.131000
     23 H4           5.8150    -0.0390     1.5200 ha         1 09Q       0.131500
     24 H5           3.7870     1.3210     1.2770 ha         1 09Q       0.132500
     25 H7           2.6190     2.6230    -0.2930 h4         1 09Q       0.022100
     26 H8           0.2130    -0.9040    -0.0390 ha         1 09Q       0.137000
     27 H9          -3.7700     1.4480    -1.1360 h1         1 09Q       0.042200
     28 H10         -3.0050     2.1450     0.2820 h1         1 09Q       0.042200
     29 H11         -3.8790     0.3720     1.7270 hc         1 09Q       0.050700
     30 H12         -5.1150     1.2710     0.8720 hc         1 09Q       0.050700
     31 H13         -5.9060    -0.9040     0.6730 h1         1 09Q       0.047200
     32 H14         -5.1590    -0.6000    -0.8660 h1         1 09Q       0.047200
     33 H15         -2.3910    -2.9270    -0.0580 h1         1 09Q       0.040200
     34 H16         -2.2230    -1.6520     1.1360 h1         1 09Q       0.040200
     35 H17         -1.3710    -1.3090    -1.3140 h1         1 09Q       0.053700
     36 H18         -3.0240    -0.9430    -1.6940 h1         1 09Q       0.053700
     37 H19         -4.3960    -2.3670     1.2860 hn         1 09Q       0.356800
     38 H6          -1.4400     3.0280    -0.6100 h4         1 09Q       0.016100
@<TRIPOS>BOND
     1     1     2 ar  
     2     1     6 ar  
     3     1     9 1   
     4     2     3 ar  
     5     2    20 1   
     6     3     4 ar  
     7     3    21 1   
     8     4     5 ar  
     9     4    22 1   
    10     5     6 ar  
    11     5    23 1   
    12     6    24 1   
    13     7    11 ar  
    14     7    19 ar  
    15     7    38 1   
    16     8     9 ar  
    17     8    19 ar  
    18     8    25 1   
    19     9    10 ar  
    20    10    11 ar  
    21    10    26 1   
    22    11    17 1   
    23    12    13 1   
    24    12    17 1   
    25    12    27 1   
    26    12    28 1   
    27    13    14 1   
    28    13    29 1   
    29    13    30 1   
    30    14    18 1   
    31    14    31 1   
    32    14    32 1   
    33    15    16 1   
    34    15    18 1   
    35    15    33 1   
    36    15    34 1   
    37    16    17 1   
    38    16    35 1   
    39    16    36 1   
    40    18    37 1   
@<TRIPOS>SUBSTRUCTURE
     1 09Q         1 TEMP              0 ****  ****    0 ROOT
