@<TRIPOS>MOLECULE
09Q
   38    40     1     0     0
SMALL
No Charge or Current Charge


@<TRIPOS>ATOM
      1 C1           2.8360    -0.0620     0.0210 cp         1 09Q      -0.035000
      2 C2           2.8950    -1.4190    -0.3900 ca         1 09Q      -0.098000
      3 C3           4.0450    -2.1970    -0.1690 ca         1 09Q      -0.111500
      4 C4           5.1620    -1.6350     0.4690 ca         1 09Q      -0.106000
      5 C5           5.1280    -0.2950     0.8860 ca         1 09Q      -0.111500
      6 C6           3.9780     0.4830     0.6630 ca         1 09Q      -0.098000
      7 C7          -0.5980     2.3820    -0.6590 ca         1 09Q       0.264900
      8 C8           1.7000     2.1640    -0.4660 ca         1 09Q       0.293900
      9 C9           1.6110     0.7670    -0.2160 cp         1 09Q      -0.043000
     10 C10          0.3130     0.1920    -0.1970 ca         1 09Q      -0.151000
     11 C11         -0.8210     0.9950    -0.4230 ca         1 09Q       0.297000
     12 C12         -3.2860     1.1920     0.1020 c3         1 09Q       0.236800
     13 C13         -4.2750     0.4020     0.9870 c3         1 09Q      -0.126400
     14 C14         -5.0480    -0.6990     0.2290 c3         1 09Q       0.166800
     15 C15         -2.8790    -2.0220    -0.1320 c3         1 09Q       0.148800
     16 C16         -2.3970    -0.8830    -1.0810 c3         1 09Q       0.220800
     17 N1          -2.1260     0.4170    -0.3980 nh         1 09Q      -0.843400
     18 N2          -4.3360    -2.0000     0.2040 n7         1 09Q      -0.873400
     19 N3           0.6290     2.9630    -0.6850 nb         1 09Q      -0.639000
     20 H1           2.0480    -1.8710    -0.9000 ha         1 09Q       0.114500
     21 H2           4.0710    -3.2340    -0.4960 ha         1 09Q       0.113500
     22 H3           6.0520    -2.2370     0.6410 ha         1 09Q       0.113000
     23 H4           5.9910     0.1420     1.3830 ha         1 09Q       0.113500
     24 H5           3.9710     1.5140     1.0060 ha         1 09Q       0.114500
     25 H7           2.6690     2.6580    -0.5050 h4         1 09Q       0.022100
     26 H8           0.1880    -0.8640     0.0200 ha         1 09Q       0.119000
     27 H9          -3.8330     1.6210    -0.7490 h1         1 09Q       0.042200
     28 H10         -2.9240     2.0360     0.7050 h1         1 09Q       0.042200
     29 H11         -3.7590    -0.0140     1.8600 hc         1 09Q       0.050700
     30 H12         -5.0080     1.1180     1.3750 hc         1 09Q       0.050700
     31 H13         -6.0250    -0.8350     0.7130 h1         1 09Q       0.047200
     32 H14         -5.2520    -0.3480    -0.7920 h1         1 09Q       0.047200
     33 H15         -2.6340    -2.9860    -0.5970 h1         1 09Q       0.040200
     34 H16         -2.2820    -1.9590     0.7880 h1         1 09Q       0.040200
     35 H17         -1.4800    -1.2330    -1.5730 h1         1 09Q       0.053700
     36 H18         -3.1310    -0.7440    -1.8860 h1         1 09Q       0.053700
     37 H19         -4.4510    -2.4550     1.1190 hn         1 09Q       0.412000
     38 H6          -1.4360     3.0530    -0.8460 h4         1 09Q       0.016100
@<TRIPOS>BOND
     1     1     2 ar  
     2     1     6 ar  
     3     1     9 1   
     4     2     3 ar  
     5     2    20 1   
     6     3     4 ar  
     7     3    21 1   
     8     4     5 ar  
     9     4    22 1   
    10     5     6 ar  
    11     5    23 1   
    12     6    24 1   
    13     7    11 ar  
    14     7    19 ar  
    15     7    38 1   
    16     8     9 ar  
    17     8    19 ar  
    18     8    25 1   
    19     9    10 ar  
    20    10    11 ar  
    21    10    26 1   
    22    11    17 1   
    23    12    13 1   
    24    12    17 1   
    25    12    27 1   
    26    12    28 1   
    27    13    14 1   
    28    13    29 1   
    29    13    30 1   
    30    14    18 1   
    31    14    31 1   
    32    14    32 1   
    33    15    16 1   
    34    15    18 1   
    35    15    33 1   
    36    15    34 1   
    37    16    17 1   
    38    16    35 1   
    39    16    36 1   
    40    18    37 1   
@<TRIPOS>SUBSTRUCTURE
     1 09Q         1 TEMP              0 ****  ****    0 ROOT
