@<TRIPOS>MOLECULE
09R
   28    29     1     0     0
SMALL
abcg2


@<TRIPOS>ATOM
      1 C1           0.3030     1.1000     0.3410 ca         1 09R       0.262900
      2 C2           0.9560    -0.1450     0.4290 ca         1 09R       0.299000
      3 C3           0.2520    -1.2320    -0.1230 ca         1 09R      -0.163000
      4 C4          -1.0020    -1.0530    -0.6710 ca         1 09R      -0.087000
      5 C5          -1.5330     0.2270    -0.6690 ca         1 09R       0.351200
      6 N1          -0.9020     1.2640    -0.1860 nb         1 09R      -0.611000
      7 BR1         -3.2570     0.5330    -1.4090 br         1 09R      -0.170200
      8 N2           2.1720    -0.2830     1.0350 nh         1 09R      -0.802400
      9 C6           2.9310    -1.5140     0.9220 c3         1 09R       0.174800
     10 C7           3.7200    -1.6220    -0.3830 c3         1 09R       0.138800
     11 N3           4.6070    -0.5170    -0.6810 n7         1 09R      -0.878400
     12 C8           3.9630     0.7520    -0.9710 c3         1 09R       0.169800
     13 C9           3.5840     1.6390     0.2200 c3         1 09R      -0.144400
     14 C10          2.9540     0.8840     1.3970 c3         1 09R       0.215800
     15 H1           0.7670     2.0040     0.7120 h4         1 09R       0.023100
     16 H2           0.6700    -2.2290    -0.1290 ha         1 09R       0.119000
     17 H3          -1.5370    -1.8950    -1.0880 ha         1 09R       0.135000
     18 H4           3.6230    -1.5470     1.7670 h1         1 09R       0.056200
     19 H5           2.2800    -2.3820     1.0430 h1         1 09R       0.056200
     20 H6           4.3030    -2.5460    -0.3520 h1         1 09R       0.058700
     21 H7           3.0260    -1.7270    -1.2230 h1         1 09R       0.058700
     22 H8           5.3170    -0.4140     0.0340 hn         1 09R       0.417000
     23 H11          2.3570     1.5660     2.0070 h1         1 09R       0.053200
     24 H12          3.7450     0.5260     2.0560 h1         1 09R       0.053200
     25 H9           4.6150     1.3410    -1.6230 h1         1 09R       0.054700
     26 H121         3.0730     0.5350    -1.5670 h1         1 09R       0.054700
     27 H10          4.4730     2.1510     0.5980 hc         1 09R       0.051700
     28 H14          2.9190     2.4280    -0.1440 hc         1 09R       0.051700
@<TRIPOS>BOND
     1     1     2 ar  
     2     1     6 ar  
     3     1    15 1   
     4     2     3 ar  
     5     2     8 1   
     6     3     4 ar  
     7     3    16 1   
     8     4     5 ar  
     9     4    17 1   
    10     5     6 ar  
    11     5     7 1   
    12     8     9 1   
    13     8    14 1   
    14     9    10 1   
    15     9    18 1   
    16     9    19 1   
    17    10    11 1   
    18    10    20 1   
    19    10    21 1   
    20    11    12 1   
    21    11    22 1   
    22    12    13 1   
    23    12    25 1   
    24    12    26 1   
    25    13    14 1   
    26    13    27 1   
    27    13    28 1   
    28    14    23 1   
    29    14    24 1   
@<TRIPOS>SUBSTRUCTURE
     1 09R         1 TEMP              0 ****  ****    0 ROOT
