@<TRIPOS>MOLECULE
09R
   28    29     1     0     0
SMALL
No Charge or Current Charge


@<TRIPOS>ATOM
      1 C1           0.0510     1.0550     0.7070 ca         1 09R       0.262900
      2 C2           0.8620    -0.0970     0.4700 ca         1 09R       0.299000
      3 C3           0.3020    -1.1030    -0.3510 ca         1 09R      -0.163000
      4 C4          -0.9920    -0.9210    -0.8760 ca         1 09R      -0.087000
      5 C5          -1.6990     0.2540    -0.5730 ca         1 09R       0.351200
      6 N1          -1.1990     1.2360     0.2040 nb         1 09R      -0.611000
      7 Br1         -3.4570     0.5360    -1.2690 br         1 09R      -0.170200
      8 N2           2.1790    -0.2340     1.0210 nh         1 09R      -0.802400
      9 C6           2.9320    -1.5210     0.9920 c3         1 09R       0.174800
     10 C7           3.8400    -1.7330    -0.2620 c3         1 09R       0.138800
     11 N3           4.7340    -0.5750    -0.5810 n7         1 09R      -0.878400
     12 C8           4.0590     0.6430    -1.0880 c3         1 09R       0.169800
     13 C9           3.6120     1.6040     0.0430 c3         1 09R      -0.144400
     14 C10          3.0190     0.9490     1.3070 c3         1 09R       0.215800
     15 H1           0.4110     1.8690     1.3340 h4         1 09R       0.023100
     16 H2           0.8470    -2.0080    -0.5960 ha         1 09R       0.119000
     17 H3          -1.4440    -1.6780    -1.5110 ha         1 09R       0.135000
     18 H4           3.5740    -1.5760     1.8820 h1         1 09R       0.056200
     19 H5           2.2440    -2.3710     1.0840 h1         1 09R       0.056200
     20 H6           4.4430    -2.6340    -0.0850 h1         1 09R       0.058700
     21 H7           3.1950    -1.9540    -1.1230 h1         1 09R       0.058700
     22 H8           5.2880    -0.3280     0.2480 hn         1 09R       0.417000
     23 H11          2.4660     1.6990     1.8870 h1         1 09R       0.053200
     24 H12          3.8560     0.6470     1.9520 h1         1 09R       0.053200
     25 H9           4.7360     1.2000    -1.7510 h1         1 09R       0.054700
     26 H121         3.1840     0.3680    -1.6940 h1         1 09R       0.054700
     27 H10          4.4650     2.2220     0.3470 hc         1 09R       0.051700
     28 H14          2.8700     2.2940    -0.3770 hc         1 09R       0.051700
@<TRIPOS>BOND
     1     1     2 ar  
     2     1     6 ar  
     3     1    15 1   
     4     2     3 ar  
     5     2     8 1   
     6     3     4 ar  
     7     3    16 1   
     8     4     5 ar  
     9     4    17 1   
    10     5     6 ar  
    11     5     7 1   
    12     8     9 1   
    13     8    14 1   
    14     9    10 1   
    15     9    18 1   
    16     9    19 1   
    17    10    11 1   
    18    10    20 1   
    19    10    21 1   
    20    11    12 1   
    21    11    22 1   
    22    12    13 1   
    23    12    25 1   
    24    12    26 1   
    25    13    14 1   
    26    13    27 1   
    27    13    28 1   
    28    14    23 1   
    29    14    24 1   
@<TRIPOS>SUBSTRUCTURE
     1 09R         1 TEMP              0 ****  ****    0 ROOT
