@<TRIPOS>MOLECULE
09S
   35    36     1     0     0
SMALL
abcg2


@<TRIPOS>ATOM
      1 C1          -3.0060     0.6890     1.3570 c3         1 09S       0.175800
      2 C2          -3.6420     1.5800     0.2690 c3         1 09S       0.146800
      3 N1          -4.2030     0.9000    -0.8770 n7         1 09S      -0.879400
      4 C3          -4.9890    -0.2980    -0.6380 c3         1 09S       0.171800
      5 C4          -4.1850    -1.5930    -0.5090 c3         1 09S      -0.149400
      6 C5          -3.2910    -1.6520     0.7240 c3         1 09S       0.216800
      7 N2          -2.3910    -0.5180     0.8510 nh         1 09S      -0.800400
      8 C6           1.1530    -0.4520    -1.2280 ca         1 09S       0.320200
      9 N3           0.4200    -1.5280    -1.2350 nb         1 09S      -0.586000
     10 C7          -0.7360    -1.5610    -0.5910 ca         1 09S       0.221900
     11 C8          -1.2290    -0.4620     0.1370 ca         1 09S       0.332000
     12 C9          -0.4340     0.7000     0.1150 ca         1 09S      -0.264000
     13 C10          0.7750     0.7200    -0.5630 ca         1 09S       0.170100
     14 O1           1.5940     1.7700    -0.6310 os         1 09S      -0.323100
     15 C11          1.2370     2.9760     0.0400 c3         1 09S       0.163600
     16 C12          2.3330     3.9850    -0.1980 c3         1 09S      -0.095100
     17 H1          -2.2950     1.2730     1.9480 h1         1 09S       0.054700
     18 H2          -3.7730     0.3780     2.0670 h1         1 09S       0.054700
     19 H3          -4.4130     2.1810     0.7610 h1         1 09S       0.051700
     20 H4          -2.9080     2.2920    -0.1150 h1         1 09S       0.051700
     21 H5          -3.4810     0.7090    -1.5590 hn         1 09S       0.424000
     22 H7          -5.6060    -0.1430     0.2540 h1         1 09S       0.051200
     23 H8          -5.6930    -0.4210    -1.4660 h1         1 09S       0.051200
     24 H9          -4.8720    -2.4440    -0.4750 hc         1 09S       0.055200
     25 H10         -3.5830    -1.7200    -1.4150 hc         1 09S       0.055200
     26 H11         -3.9110    -1.6690     1.6220 h1         1 09S       0.056200
     27 H12         -2.7250    -2.5830     0.7430 h1         1 09S       0.056200
     28 H13         -1.2820    -2.4920    -0.6600 h4         1 09S       0.025100
     29 H14         -0.7590     1.5880     0.6350 ha         1 09S       0.121000
     30 H15          0.2810     3.3470    -0.3440 h1         1 09S       0.035200
     31 H16          1.1170     2.7860     1.1110 h1         1 09S       0.035200
     32 H17          2.0740     4.9170     0.3040 hc         1 09S       0.050367
     33 H18          3.2860     3.6410     0.2040 hc         1 09S       0.050367
     34 H19          2.4560     4.1990    -1.2590 hc         1 09S       0.050367
     35 BR1          2.7930    -0.4960    -2.1780 br         1 09S      -0.152200
@<TRIPOS>BOND
     1     1     2 1   
     2     1     7 1   
     3     1    17 1   
     4     1    18 1   
     5     2     3 1   
     6     2    19 1   
     7     2    20 1   
     8     3     4 1   
     9     3    21 1   
    10     4     5 1   
    11     4    22 1   
    12     4    23 1   
    13     5     6 1   
    14     5    24 1   
    15     5    25 1   
    16     6     7 1   
    17     6    26 1   
    18     6    27 1   
    19     7    11 1   
    20     8     9 ar  
    21     8    13 ar  
    22     8    35 1   
    23     9    10 ar  
    24    10    11 ar  
    25    10    28 1   
    26    11    12 ar  
    27    12    13 ar  
    28    12    29 1   
    29    13    14 1   
    30    14    15 1   
    31    15    16 1   
    32    15    30 1   
    33    15    31 1   
    34    16    32 1   
    35    16    33 1   
    36    16    34 1   
@<TRIPOS>SUBSTRUCTURE
     1 09S         1 TEMP              0 ****  ****    0 ROOT
