@<TRIPOS>MOLECULE
09S
   35    36     1     0     0
SMALL
No Charge or Current Charge


@<TRIPOS>ATOM
      1 C1          -3.1610     0.8590     1.1450 c3         1 09S       0.175800
      2 C2          -3.9280     1.5620    -0.0170 c3         1 09S       0.146800
      3 N1          -4.5230     0.6210    -1.0140 n7         1 09S      -0.879400
      4 C3          -5.2440    -0.5560    -0.4830 c3         1 09S       0.171800
      5 C4          -4.2740    -1.7500    -0.3080 c3         1 09S      -0.149400
      6 C5          -3.2440    -1.6110     0.8370 c3         1 09S       0.216800
      7 N2          -2.4260    -0.3790     0.7540 nh         1 09S      -0.800400
      8 C6           1.1730    -0.3200    -1.4400 ca         1 09S       0.320200
      9 N3           0.3770    -1.4060    -1.5530 nb         1 09S      -0.586000
     10 C7          -0.7760    -1.4040    -0.8350 ca         1 09S       0.221900
     11 C8          -1.1970    -0.3380     0.0190 ca         1 09S       0.332000
     12 C9          -0.3400     0.7810     0.1180 ca         1 09S      -0.264000
     13 C10          0.8640     0.7960    -0.6220 ca         1 09S       0.170100
     14 O1           1.7480     1.8610    -0.5700 os         1 09S      -0.323100
     15 C11          1.5010     3.0280     0.2310 c3         1 09S       0.163600
     16 C12          2.6870     3.9850     0.0300 c3         1 09S      -0.095100
     17 H1          -2.5020     1.5840     1.6380 h1         1 09S       0.054700
     18 H2          -3.9060     0.5990     1.9090 h1         1 09S       0.054700
     19 H3          -4.7100     2.1920     0.4290 h1         1 09S       0.051700
     20 H4          -3.2300     2.2390    -0.5280 h1         1 09S       0.051700
     21 H5          -3.7450     0.2460    -1.5680 hn         1 09S       0.424000
     22 H7          -5.7590    -0.3310     0.4630 h1         1 09S       0.051200
     23 H8          -6.0140    -0.8630    -1.2040 h1         1 09S       0.051200
     24 H9          -4.8690    -2.6510    -0.1160 hc         1 09S       0.055200
     25 H10         -3.7480    -1.9290    -1.2530 hc         1 09S       0.055200
     26 H11         -3.7880    -1.6230     1.7920 h1         1 09S       0.056200
     27 H12         -2.6000    -2.5010     0.8590 h1         1 09S       0.056200
     28 H13         -1.3870    -2.2950    -0.9610 h4         1 09S       0.025100
     29 H14         -0.5980     1.6110     0.7630 ha         1 09S       0.121000
     30 H15          0.5730     3.5260    -0.0790 h1         1 09S       0.035200
     31 H16          1.4230     2.7620     1.2940 h1         1 09S       0.035200
     32 H17          2.5450     4.8950     0.6240 hc         1 09S       0.050367
     33 H18          3.6230     3.5100     0.3450 hc         1 09S       0.050367
     34 H19          2.7760     4.2720    -1.0250 hc         1 09S       0.050367
     35 Br1          2.7880    -0.3710    -2.4730 br         1 09S      -0.152200
@<TRIPOS>BOND
     1     1     2 1   
     2     1     7 1   
     3     1    17 1   
     4     1    18 1   
     5     2     3 1   
     6     2    19 1   
     7     2    20 1   
     8     3     4 1   
     9     3    21 1   
    10     4     5 1   
    11     4    22 1   
    12     4    23 1   
    13     5     6 1   
    14     5    24 1   
    15     5    25 1   
    16     6     7 1   
    17     6    26 1   
    18     6    27 1   
    19     7    11 1   
    20     8     9 ar  
    21     8    13 ar  
    22     8    35 1   
    23     9    10 ar  
    24    10    11 ar  
    25    10    28 1   
    26    11    12 ar  
    27    12    13 ar  
    28    12    29 1   
    29    13    14 1   
    30    14    15 1   
    31    15    16 1   
    32    15    30 1   
    33    15    31 1   
    34    16    32 1   
    35    16    33 1   
    36    16    34 1   
@<TRIPOS>SUBSTRUCTURE
     1 09S         1 TEMP              0 ****  ****    0 ROOT
