@<TRIPOS>MOLECULE
09T
   34    36     1     0     0
SMALL
abcg2


@<TRIPOS>ATOM
      1 C4           1.2970     1.3990    -0.3010 ca         1 09T      -0.078000
      2 C5           0.9620     1.1460     1.0250 ca         1 09T      -0.105300
      3 C6           1.7120     0.2310     1.7480 ca         1 09T      -0.089000
      4 C7           2.7870    -0.4200     1.1600 ca         1 09T       0.116000
      5 N12         -3.0140     2.7480    -0.3790 nc         1 09T      -0.567100
      6 C13         -3.1280     1.3760    -0.3450 ca         1 09T       0.064400
      7 C15         -3.9610    -0.8370    -0.7470 ca         1 09T      -0.096300
      8 C17         -2.9120    -1.3750     0.0420 ca         1 09T      -0.055300
      9 C20         -2.0990     0.8270     0.4280 ca         1 09T      -0.078200
     10 CL8          3.6960    -1.5510     2.0880 cl         1 09T      -0.168000
     11 C2           3.1160    -0.1630    -0.1650 ca         1 09T       0.124000
     12 CL1          4.4420    -0.9650    -0.9150 cl         1 09T      -0.166000
     13 C3           2.3650     0.7490    -0.8930 ca         1 09T      -0.094000
     14 C9          -0.1860     1.8630     1.6900 c3         1 09T       0.131900
     15 N10         -1.3640     1.9040     0.8600 na         1 09T      -0.189600
     16 C11         -1.9620     3.0090     0.3410 cd         1 09T       0.413700
     17 C19         -1.9740    -0.5420     0.6310 ca         1 09T      -0.109000
     18 C16         -4.9610    -1.7580    -1.3860 c3         1 09T      -0.042800
     19 C14         -4.0670     0.5310    -0.9360 ca         1 09T      -0.048000
     20 H1           0.7230     2.1040    -0.8890 ha         1 09T       0.131000
     21 H2           1.4600     0.0130     2.7780 ha         1 09T       0.131000
     22 H3           2.6190     0.9490    -1.9250 ha         1 09T       0.137000
     23 H4          -0.4270     1.3860     2.6420 h1         1 09T       0.067200
     24 H5           0.0960     2.8930     1.9140 h1         1 09T       0.067200
     25 H6          -1.5670     3.9960     0.5380 h5         1 09T       0.059800
     26 H7          -1.1690    -0.9600     1.2240 ha         1 09T       0.118000
     27 H8          -2.7110    -3.3900    -0.7090 hc         1 09T       0.042033
     28 H9          -1.9490    -3.1180     0.8550 hc         1 09T       0.042033
     29 H10         -3.6990    -3.2630     0.7320 hc         1 09T       0.042033
     30 H11         -5.5060    -2.3460    -0.6440 hc         1 09T       0.040033
     31 H12         -5.6950    -1.2000    -1.9650 hc         1 09T       0.040033
     32 H13         -4.4810    -2.4730    -2.0590 hc         1 09T       0.040033
     33 H14         -4.8700     0.9420    -1.5360 ha         1 09T       0.127000
     34 C18         -2.8110    -2.8600     0.2410 c3         1 09T      -0.047800
@<TRIPOS>BOND
     1     1     2 ar  
     2     1    13 ar  
     3     1    20 1   
     4     2     3 ar  
     5     2    14 1   
     6     3     4 ar  
     7     3    21 1   
     8     4    10 1   
     9     4    11 ar  
    10     5     6 1   
    11     5    16 2   
    12     6     9 ar  
    13     6    19 ar  
    14     7     8 ar  
    15     7    18 1   
    16     7    19 ar  
    17     8    17 ar  
    18     8    34 1   
    19     9    15 1   
    20     9    17 ar  
    21    11    12 1   
    22    11    13 ar  
    23    13    22 1   
    24    14    15 1   
    25    14    23 1   
    26    14    24 1   
    27    15    16 1   
    28    16    25 1   
    29    17    26 1   
    30    18    30 1   
    31    18    31 1   
    32    18    32 1   
    33    19    33 1   
    34    27    34 1   
    35    28    34 1   
    36    29    34 1   
@<TRIPOS>SUBSTRUCTURE
     1 09T         1 TEMP              0 ****  ****    0 ROOT
