@<TRIPOS>MOLECULE
09T
   34    36     1     0     0
SMALL
No Charge or Current Charge


@<TRIPOS>ATOM
      1 C4           1.2660     1.3350    -0.3190 ca         1 09T      -0.078000
      2 C5           0.9660     1.1300     1.0440 ca         1 09T      -0.105300
      3 C6           1.7520     0.2320     1.7940 ca         1 09T      -0.089000
      4 C7           2.8160    -0.4610     1.1910 ca         1 09T       0.116000
      5 N12         -3.1360     2.8020    -0.3800 nc         1 09T      -0.567100
      6 C13         -3.1700     1.4170    -0.3260 ca         1 09T       0.064400
      7 C15         -3.9600    -0.8400    -0.7610 ca         1 09T      -0.096300
      8 C17         -2.8880    -1.3550     0.0220 ca         1 09T      -0.055300
      9 C20         -2.1480     0.9110     0.4220 ca         1 09T      -0.078200
     10 Cl8          3.7690    -1.5810     2.1650 cl         1 09T      -0.168000
     11 C2           3.1060    -0.2550    -0.1740 ca         1 09T       0.124000
     12 Cl1          4.4340    -1.1080    -0.9630 cl         1 09T      -0.166000
     13 C3           2.3300     0.6440    -0.9240 ca         1 09T      -0.094000
     14 C9          -0.1930     1.8670     1.7140 c3         1 09T       0.131900
     15 N10         -1.4050     1.9640     0.8830 na         1 09T      -0.189600
     16 C11         -2.0500     3.0990     0.3670 cd         1 09T       0.413700
     17 C19         -1.9700    -0.4640     0.6230 ca         1 09T      -0.109000
     18 C16         -4.9700    -1.7720    -1.4240 c3         1 09T      -0.042800
     19 C14         -4.0980     0.5590    -0.9330 ca         1 09T      -0.048000
     20 H1           0.6750     2.0290    -0.9150 ha         1 09T       0.131000
     21 H2           1.5370     0.0640     2.8470 ha         1 09T       0.131000
     22 H3           2.5540     0.8050    -1.9760 ha         1 09T       0.137000
     23 H4          -0.4620     1.3610     2.6490 h1         1 09T       0.067200
     24 H5           0.1350     2.8820     1.9740 h1         1 09T       0.067200
     25 H6          -1.6760     4.0950     0.5700 h5         1 09T       0.059800
     26 H7          -1.1450    -0.8370     1.2240 ha         1 09T       0.118000
     27 H8          -2.5680    -3.3700    -0.7310 hc         1 09T       0.042033
     28 H9          -1.8360    -3.0800     0.8500 hc         1 09T       0.042033
     29 H10         -3.5840    -3.2940     0.7210 hc         1 09T       0.042033
     30 H11         -5.4950    -2.3800    -0.6770 hc         1 09T       0.040033
     31 H12         -5.7300    -1.2170    -1.9860 hc         1 09T       0.040033
     32 H13         -4.4760    -2.4530    -2.1280 hc         1 09T       0.040033
     33 H14         -4.9080     0.9720    -1.5270 ha         1 09T       0.127000
     34 C18         -2.7090    -2.8560     0.2270 c3         1 09T      -0.047800
@<TRIPOS>BOND
     1     1     2 ar  
     2     1    13 ar  
     3     1    20 1   
     4     2     3 ar  
     5     2    14 1   
     6     3     4 ar  
     7     3    21 1   
     8     4    10 1   
     9     4    11 ar  
    10     5     6 1   
    11     5    16 2   
    12     6     9 ar  
    13     6    19 ar  
    14     7     8 ar  
    15     7    18 1   
    16     7    19 ar  
    17     8    17 ar  
    18     8    34 1   
    19     9    15 1   
    20     9    17 ar  
    21    11    12 1   
    22    11    13 ar  
    23    13    22 1   
    24    14    15 1   
    25    14    23 1   
    26    14    24 1   
    27    15    16 1   
    28    16    25 1   
    29    17    26 1   
    30    18    30 1   
    31    18    31 1   
    32    18    32 1   
    33    19    33 1   
    34    27    34 1   
    35    28    34 1   
    36    29    34 1   
@<TRIPOS>SUBSTRUCTURE
     1 09T         1 TEMP              0 ****  ****    0 ROOT
