@<TRIPOS>MOLECULE
09U
   16    16     1     0     0
SMALL
bcc


@<TRIPOS>ATOM
      1 C1          -0.3820     0.5550     0.1770 c3         1 09U       0.164400
      2 C2           0.9210     0.1790    -0.4600 cx         1 09U      -0.125700
      3 C3           2.1970     0.5550     0.2290 cx         1 09U      -0.126900
      4 C4           1.7730    -0.8810     0.1660 cx         1 09U      -0.126900
      5 C5          -2.6320    -0.0620     0.3300 c3         1 09U       0.122700
      6 O1          -1.3700    -0.3760    -0.1980 os         1 09U      -0.403600
      7 H1          -0.2670     0.5810     1.2710 h1         1 09U       0.021700
      8 H2          -0.6740     1.5690    -0.1330 h1         1 09U       0.021700
      9 H3           0.9300     0.2300    -1.5440 hc         1 09U       0.086700
     10 H4           3.0310     0.8740    -0.3830 hc         1 09U       0.071200
     11 H5           2.1300     1.0630     1.1840 hc         1 09U       0.071200
     12 H6           1.4180    -1.3460     1.0780 hc         1 09U       0.071200
     13 H7           2.3210    -1.5480    -0.4880 hc         1 09U       0.071200
     14 H8          -2.6300    -0.0500     1.4270 h1         1 09U       0.027033
     15 H9          -2.9930     0.9150    -0.0130 h1         1 09U       0.027033
     16 H10         -3.3370    -0.8240    -0.0020 h1         1 09U       0.027033
@<TRIPOS>BOND
     1     1     2 1   
     2     1     6 1   
     3     1     7 1   
     4     1     8 1   
     5     2     3 1   
     6     2     4 1   
     7     2     9 1   
     8     3     4 1   
     9     3    10 1   
    10     3    11 1   
    11     4    12 1   
    12     4    13 1   
    13     5     6 1   
    14     5    14 1   
    15     5    15 1   
    16     5    16 1   
@<TRIPOS>SUBSTRUCTURE
     1 09U         1 TEMP              0 ****  ****    0 ROOT
