@<TRIPOS>MOLECULE
09U
   16    16     1     0     0
SMALL
No Charge or Current Charge


@<TRIPOS>ATOM
      1 C1          -0.3840     0.6070     0.2090 c3         1 09U       0.187600
      2 C2           0.9350     0.1910    -0.4300 cx         1 09U      -0.125700
      3 C3           2.2560     0.5540     0.2090 cx         1 09U      -0.126900
      4 C4           1.7980    -0.8860     0.1860 cx         1 09U      -0.126900
      5 C5          -2.6950    -0.0880     0.3100 c3         1 09U       0.145900
      6 O1          -1.3800    -0.3380    -0.2140 os         1 09U      -0.450000
      7 H1          -0.2870     0.6060     1.3030 h1         1 09U       0.021700
      8 H2          -0.6450     1.6220    -0.1170 h1         1 09U       0.021700
      9 H3           0.8940     0.2270    -1.5170 hc         1 09U       0.086700
     10 H4           3.0760     0.8360    -0.4480 hc         1 09U       0.071200
     11 H5           2.2380     1.0750     1.1630 hc         1 09U       0.071200
     12 H6           1.4700    -1.3290     1.1240 hc         1 09U       0.071200
     13 H7           2.3090    -1.5720    -0.4870 hc         1 09U       0.071200
     14 H8          -2.6900    -0.1240     1.4080 h1         1 09U       0.027033
     15 H9          -3.0590     0.8990    -0.0050 h1         1 09U       0.027033
     16 H10         -3.4000    -0.8450    -0.0540 h1         1 09U       0.027033
@<TRIPOS>BOND
     1     1     2 1   
     2     1     6 1   
     3     1     7 1   
     4     1     8 1   
     5     2     3 1   
     6     2     4 1   
     7     2     9 1   
     8     3     4 1   
     9     3    10 1   
    10     3    11 1   
    11     4    12 1   
    12     4    13 1   
    13     5     6 1   
    14     5    14 1   
    15     5    15 1   
    16     5    16 1   
@<TRIPOS>SUBSTRUCTURE
     1 09U         1 TEMP              0 ****  ****    0 ROOT
