@<TRIPOS>MOLECULE
09V
   13    13     1     0     0
SMALL
No Charge or Current Charge


@<TRIPOS>ATOM
      1 O1           1.9370     0.4720     0.0390 oh         1 09V      -0.657000
      2 C1           0.9090    -0.4850     0.3030 c3         1 09V       0.192600
      3 C2          -0.3620    -0.1170    -0.4520 cx         1 09V      -0.126700
      4 C3          -1.7150    -0.5980     0.0240 cx         1 09V      -0.126900
      5 C4          -1.3570     0.8670     0.1220 cx         1 09V      -0.126900
      6 H1           2.7260     0.1870     0.5520 ho         1 09V       0.440000
      7 H2           1.2330    -1.4860    -0.0120 h1         1 09V       0.017700
      8 H3           0.6970    -0.5270     1.3800 h1         1 09V       0.017700
      9 H4          -0.2090    -0.0880    -1.5280 hc         1 09V       0.085700
     10 H5          -2.4410    -0.8940    -0.7290 hc         1 09V       0.070950
     11 H6          -1.7600    -1.1700     0.9480 hc         1 09V       0.070950
     12 H7          -1.1600     1.2760     1.1100 hc         1 09V       0.070950
     13 H8          -1.8420     1.5550    -0.5670 hc         1 09V       0.070950
@<TRIPOS>BOND
     1     1     2 1   
     2     1     6 1   
     3     2     3 1   
     4     2     7 1   
     5     2     8 1   
     6     3     4 1   
     7     3     5 1   
     8     3     9 1   
     9     4     5 1   
    10     4    10 1   
    11     4    11 1   
    12     5    12 1   
    13     5    13 1   
@<TRIPOS>SUBSTRUCTURE
     1 09V         1 TEMP              0 ****  ****    0 ROOT
