@<TRIPOS>MOLECULE
09V
   13    13     1     0     0
SMALL
abcg2


@<TRIPOS>ATOM
      1 O1           1.8670     0.5000     0.0900 oh         1 09V      -0.657000
      2 C1           0.8820    -0.4900     0.3040 c3         1 09V       0.192600
      3 C2          -0.3510    -0.1240    -0.4630 cx         1 09V      -0.126700
      4 C3          -1.6850    -0.5890     0.0320 cx         1 09V      -0.126900
      5 C4          -1.3190     0.8620     0.1120 cx         1 09V      -0.126900
      6 H1           2.6740     0.2170     0.5290 ho         1 09V       0.440000
      7 H2           1.2350    -1.4770    -0.0210 h1         1 09V       0.017700
      8 H3           0.6290    -0.5820     1.3700 h1         1 09V       0.017700
      9 H4          -0.2260    -0.1030    -1.5420 hc         1 09V       0.085700
     10 H5          -2.4210    -0.8930    -0.7010 hc         1 09V       0.070950
     11 H6          -1.7190    -1.1580     0.9540 hc         1 09V       0.070950
     12 H7          -1.1000     1.2770     1.0890 hc         1 09V       0.070950
     13 H8          -1.8100     1.5520    -0.5610 hc         1 09V       0.070950
@<TRIPOS>BOND
     1     1     2 1   
     2     1     6 1   
     3     2     3 1   
     4     2     7 1   
     5     2     8 1   
     6     3     4 1   
     7     3     5 1   
     8     3     9 1   
     9     4     5 1   
    10     4    10 1   
    11     4    11 1   
    12     5    12 1   
    13     5    13 1   
@<TRIPOS>SUBSTRUCTURE
     1 09V         1 TEMP              0 ****  ****    0 ROOT
