@<TRIPOS>MOLECULE
09W
   46    49     1     0     0
SMALL
No Charge or Current Charge


@<TRIPOS>ATOM
      1 C02         21.3130   129.0560    57.3400 ce         1 09W       0.683800
      2 C04         20.6400   130.2140    56.7770 cc         1 09W      -0.288900
      3 C05         20.6540   130.6620    55.4780 cd         1 09W      -0.063000
      4 C06         19.8990   131.8500    55.2240 cd         1 09W      -0.062000
      5 C07         19.3140   132.3340    56.3840 cc         1 09W      -0.202300
      6 C08         18.3790   133.5060    56.5710 c3         1 09W       0.176300
      7 C10         16.1780   132.7360    57.5230 c          1 09W       0.620700
      8 C12         15.3620   132.5740    58.7860 ca         1 09W      -0.177600
      9 C13         15.8280   132.9310    60.0720 ca         1 09W       0.153100
     10 C15         17.1860   133.4030    61.8110 c5         1 09W       0.152600
     11 C16         15.7470   133.2600    62.4210 c5         1 09W      -0.052100
     12 C17         15.0430   132.7740    61.1950 ca         1 09W      -0.180300
     13 C18         13.7510   132.2400    61.1160 ca         1 09W      -0.035000
     14 C19         13.2620   131.8610    59.8540 ca         1 09W      -0.158000
     15 C20         14.0570   132.0270    58.7000 ca         1 09W      -0.026000
     16 C22         19.8840   132.5010    53.8870 ca         1 09W      -0.009000
     17 C23         19.7220   133.8970    53.7250 ca         1 09W      -0.099000
     18 C24         19.7210   134.4820    52.4460 ca         1 09W      -0.111000
     19 C25         19.8870   133.6850    51.3050 ca         1 09W      -0.109000
     20 C26         20.0650   132.3010    51.4460 ca         1 09W      -0.111000
     21 C27         20.0690   131.7160    52.7240 ca         1 09W      -0.099000
     22 N01         21.1690   128.7510    58.6430 nv         1 09W      -1.073200
     23 N03         22.0460   128.3080    56.6280 n2         1 09W      -0.815100
     24 N09         17.4190   133.3080    57.6560 ns         1 09W      -0.512900
     25 O11         15.7600   132.3740    56.4320 o          1 09W      -0.597100
     26 O14         17.0520   133.4800    60.3520 os         1 09W      -0.355100
     27 S21         19.6850   131.3020    57.7670 ss         1 09W       0.242000
     28 H051        21.2250   130.1500    54.7090 ha         1 09W       0.152000
     29 H081        18.9690   134.4050    56.7950 h1         1 09W       0.066200
     30 H082        17.8230   133.6890    55.6420 h1         1 09W       0.066200
     31 H151        17.7880   132.5160    62.0460 h1         1 09W       0.061200
     32 H152        17.7210   134.2860    62.1850 h1         1 09W       0.061200
     33 H161        15.7180   132.5500    63.2550 hc         1 09W       0.066200
     34 H162        15.3550   134.2210    62.7720 hc         1 09W       0.066200
     35 H181        13.1390   132.1230    62.0080 ha         1 09W       0.118000
     36 H191        12.2620   131.4430    59.7660 ha         1 09W       0.122000
     37 H201        13.6500   131.7290    57.7350 ha         1 09W       0.141000
     38 H231        19.6410   134.5540    54.5830 ha         1 09W       0.113000
     39 H241        19.6010   135.5580    52.3420 ha         1 09W       0.111000
     40 H251        19.8860   134.1380    50.3160 ha         1 09W       0.111000
     41 H261        20.1970   131.6780    50.5640 ha         1 09W       0.111000
     42 H271        20.1880   130.6390    52.7990 ha         1 09W       0.113000
     43 H011        20.4120   129.2250    59.1180 hn         1 09W       0.459500
     44 H031        22.5990   127.7200    57.2600 hn         1 09W       0.369400
     45 H091        17.6780   133.5860    58.5960 hn         1 09W       0.338500
     46 H012        21.2980   127.7780    58.8930 hn         1 09W       0.459500
@<TRIPOS>BOND
     1     1     2 1   
     2     1    22 1   
     3     1    23 2   
     4     2     3 2   
     5     2    27 1   
     6     3     4 1   
     7     3    28 1   
     8     4     5 2   
     9     4    16 1   
    10     5     6 1   
    11     5    27 1   
    12     6    24 1   
    13     6    29 1   
    14     6    30 1   
    15     7     8 1   
    16     7    24 1   
    17     7    25 2   
    18     8     9 ar  
    19     8    15 ar  
    20     9    12 ar  
    21     9    26 1   
    22    10    11 1   
    23    10    26 1   
    24    10    31 1   
    25    10    32 1   
    26    11    12 1   
    27    11    33 1   
    28    11    34 1   
    29    12    13 ar  
    30    13    14 ar  
    31    13    35 1   
    32    14    15 ar  
    33    14    36 1   
    34    15    37 1   
    35    16    17 ar  
    36    16    21 ar  
    37    17    18 ar  
    38    17    38 1   
    39    18    19 ar  
    40    18    39 1   
    41    19    20 ar  
    42    19    40 1   
    43    20    21 ar  
    44    20    41 1   
    45    21    42 1   
    46    22    43 1   
    47    22    46 1   
    48    23    44 1   
    49    24    45 1   
@<TRIPOS>SUBSTRUCTURE
     1 09W         1 TEMP              0 ****  ****    0 ROOT
