@<TRIPOS>MOLECULE
09W
   46    49     1     0     0
SMALL
abcg2


@<TRIPOS>ATOM
      1 C02         21.1940   128.6960    57.0370 ce         1 09W       0.683800
      2 C04         20.6080   129.9750    56.5990 cc         1 09W      -0.288900
      3 C05         20.6720   130.5220    55.3550 cd         1 09W      -0.063000
      4 C06         20.0070   131.7770    55.2510 cd         1 09W      -0.062000
      5 C07         19.4430   132.1550    56.4430 cc         1 09W      -0.202300
      6 C08         18.6490   133.3860    56.7680 c3         1 09W       0.176300
      7 C10         16.6190   132.4640    57.7400 c          1 09W       0.620700
      8 C12         15.7290   132.3520    58.9330 ca         1 09W      -0.177600
      9 C13         15.8230   133.1190    60.0910 ca         1 09W       0.153100
     10 C15         16.6510   134.4950    61.6890 c5         1 09W       0.152600
     11 C16         15.3050   133.9770    62.2080 c5         1 09W      -0.052100
     12 C17         14.9550   132.9570    61.1650 ca         1 09W      -0.180300
     13 C18         13.9570   132.0090    61.1120 ca         1 09W      -0.035000
     14 C19         13.8370   131.2210    59.9660 ca         1 09W      -0.158000
     15 C20         14.7010   131.4000    58.9020 ca         1 09W      -0.026000
     16 C22         19.9220   132.5370    53.9930 ca         1 09W      -0.009000
     17 C23         20.1270   133.9170    53.9590 ca         1 09W      -0.099000
     18 C24         20.0360   134.6170    52.7640 ca         1 09W      -0.111000
     19 C25         19.7490   133.9490    51.5820 ca         1 09W      -0.109000
     20 C26         19.5550   132.5730    51.6020 ca         1 09W      -0.111000
     21 C27         19.6410   131.8740    52.7970 ca         1 09W      -0.099000
     22 N01         20.5860   128.1290    58.1250 nv         1 09W      -1.073200
     23 N03         22.2200   128.2580    56.4160 n2         1 09W      -0.815100
     24 N09         17.7440   133.1940    57.8730 ns         1 09W      -0.512900
     25 O11         16.3430   131.8960    56.6930 o          1 09W      -0.597100
     26 O14         16.7300   134.0920    60.3040 os         1 09W      -0.355100
     27 S21         19.7290   130.9950    57.6750 ss         1 09W       0.242000
     28 H051        21.1770   130.0410    54.5280 ha         1 09W       0.152000
     29 H081        19.3170   134.2030    57.0440 h1         1 09W       0.066200
     30 H082        18.1080   133.7090    55.8750 h1         1 09W       0.066200
     31 H151        17.4890   134.0440    62.2230 h1         1 09W       0.061200
     32 H152        16.7510   135.5780    61.7280 h1         1 09W       0.061200
     33 H161        15.3940   133.5570    63.2090 hc         1 09W       0.066200
     34 H162        14.5530   134.7680    62.2490 hc         1 09W       0.066200
     35 H181        13.2760   131.8760    61.9430 ha         1 09W       0.118000
     36 H191        13.0630   130.4680    59.9070 ha         1 09W       0.122000
     37 H201        14.5940   130.7850    58.0190 ha         1 09W       0.141000
     38 H231        20.3830   134.4480    54.8660 ha         1 09W       0.113000
     39 H241        20.2000   135.6870    52.7570 ha         1 09W       0.111000
     40 H251        19.6800   134.4950    50.6500 ha         1 09W       0.111000
     41 H261        19.3310   132.0430    50.6860 ha         1 09W       0.111000
     42 H271        19.4740   130.8040    52.8030 ha         1 09W       0.113000
     43 H011        19.5910   128.2540    58.2310 hn         1 09W       0.459500
     44 H031        22.4980   127.3450    56.7670 hn         1 09W       0.369400
     45 H091        17.9360   133.6790    58.7360 hn         1 09W       0.338500
     46 H012        20.8940   127.2040    58.3830 hn         1 09W       0.459500
@<TRIPOS>BOND
     1     1     2 1   
     2     1    22 1   
     3     1    23 2   
     4     2     3 2   
     5     2    27 1   
     6     3     4 1   
     7     3    28 1   
     8     4     5 2   
     9     4    16 1   
    10     5     6 1   
    11     5    27 1   
    12     6    24 1   
    13     6    29 1   
    14     6    30 1   
    15     7     8 1   
    16     7    24 1   
    17     7    25 2   
    18     8     9 ar  
    19     8    15 ar  
    20     9    12 ar  
    21     9    26 1   
    22    10    11 1   
    23    10    26 1   
    24    10    31 1   
    25    10    32 1   
    26    11    12 1   
    27    11    33 1   
    28    11    34 1   
    29    12    13 ar  
    30    13    14 ar  
    31    13    35 1   
    32    14    15 ar  
    33    14    36 1   
    34    15    37 1   
    35    16    17 ar  
    36    16    21 ar  
    37    17    18 ar  
    38    17    38 1   
    39    18    19 ar  
    40    18    39 1   
    41    19    20 ar  
    42    19    40 1   
    43    20    21 ar  
    44    20    41 1   
    45    21    42 1   
    46    22    43 1   
    47    22    46 1   
    48    23    44 1   
    49    24    45 1   
@<TRIPOS>SUBSTRUCTURE
     1 09W         1 TEMP              0 ****  ****    0 ROOT
