@<TRIPOS>MOLECULE
09X
   26    26     1     0     0
SMALL
abcg2


@<TRIPOS>ATOM
      1 C2           2.2820    21.1370    14.9250 c5         1 09X       0.133300
      2 C3           2.5050    20.1170    16.0280 c5         1 09X       0.103300
      3 C4           1.1550    19.3890    16.0670 c5         1 09X       0.141300
      4 C5           1.2080    17.9510    16.5290 c3         1 09X       0.156600
      5 CAH         -0.5970    21.8600    11.1270 c3         1 09X      -0.005400
      6 OAK          0.8180    19.9330    11.1970 o          1 09X      -0.565100
      7 C1           1.4440    20.3470    13.9280 c5         1 09X       0.332700
      8 O4           0.6380    19.4660    14.7210 os         1 09X      -0.459000
      9 O5           2.1430    17.2250    15.7340 oh         1 09X      -0.720000
     10 O3           2.8470    20.7610    17.2450 oh         1 09X      -0.720000
     11 O2           3.4520    21.6180    14.2930 oh         1 09X      -0.701000
     12 H1           1.6880    21.9660    15.3300 h1         1 09X       0.050700
     13 H2           3.2970    19.4310    15.7200 h1         1 09X       0.081700
     14 H3           0.4820    19.9330    16.7380 h1         1 09X       0.063700
     15 H4           0.2080    17.5130    16.4490 h1         1 09X       0.033700
     16 H5           1.5010    17.9450    17.5860 h1         1 09X       0.033700
     17 BR          -2.4310    21.1330    11.2040 br         1 09X      -0.231000
     18 H7          -0.6400    22.8320    11.6060 h1         1 09X       0.093200
     19 H8          -0.3540    21.9450    10.0740 h1         1 09X       0.093200
     20 H10          2.0880    19.7640    13.2690 h2         1 09X       0.113700
     21 H11          2.1430    16.3070    16.0290 ho         1 09X       0.506000
     22 H12          3.2570    20.1150    17.8330 ho         1 09X       0.514000
     23 H13          3.9000    22.2210    14.8990 ho         1 09X       0.517000
     24 NAF          0.6190    21.1720    13.0990 ns         1 09X      -0.495900
     25 H9           0.1420    21.9490    13.5340 hn         1 09X       0.312500
     26 CAG          0.3470    20.8870    11.8040 c          1 09X       0.615100
@<TRIPOS>BOND
     1     1     2 1   
     2     1     7 1   
     3     1    11 1   
     4     1    12 1   
     5     2     3 1   
     6     2    10 1   
     7     2    13 1   
     8     3     4 1   
     9     3     8 1   
    10     3    14 1   
    11     4     9 1   
    12     4    15 1   
    13     4    16 1   
    14     5    17 1   
    15     5    18 1   
    16     5    19 1   
    17     5    26 1   
    18     6    26 2   
    19     7     8 1   
    20     7    20 1   
    21     7    24 1   
    22     9    21 1   
    23    10    22 1   
    24    11    23 1   
    25    24    25 1   
    26    24    26 1   
@<TRIPOS>SUBSTRUCTURE
     1 09X         1 TEMP              0 ****  ****    0 ROOT
