@<TRIPOS>MOLECULE
09X
   26    26     1     0     0
SMALL
No Charge or Current Charge


@<TRIPOS>ATOM
      1 C2           2.0790    21.1410    14.8090 c5         1 09X       0.133300
      2 C3           2.5310    20.1970    15.9630 c5         1 09X       0.103300
      3 C4           1.1770    19.4660    16.3150 c5         1 09X       0.141300
      4 C5           1.3060    17.9350    16.5790 c3         1 09X       0.156600
      5 CAH         -0.3410    21.9230    11.0530 c3         1 09X      -0.005400
      6 OAK          1.4330    20.3130    11.3770 o          1 09X      -0.565100
      7 C1           1.0940    20.1590    14.0990 c5         1 09X       0.332700
      8 O4           0.2840    19.7140    15.1950 os         1 09X      -0.459000
      9 O5           1.9690    17.2500    15.4970 oh         1 09X      -0.720000
     10 O3           3.1180    20.9300    17.0560 oh         1 09X      -0.720000
     11 O2           3.1870    21.6110    14.0200 oh         1 09X      -0.701000
     12 H1           1.5220    21.9960    15.2190 h1         1 09X       0.050700
     13 H2           3.2580    19.4710    15.5680 h1         1 09X       0.081700
     14 H3           0.7170    19.9190    17.2040 h1         1 09X       0.063700
     15 H4           0.2990    17.5230    16.7340 h1         1 09X       0.033700
     16 H5           1.8650    17.7920    17.5140 h1         1 09X       0.033700
     17 Br          -2.2120    21.2440    10.8450 br         1 09X      -0.231000
     18 H7          -0.3990    22.9040    11.5390 h1         1 09X       0.093200
     19 H8           0.0830    22.0300    10.0480 h1         1 09X       0.093200
     20 H10          1.6100    19.3190    13.6100 h2         1 09X       0.113700
     21 H11          1.9440    16.2870    15.7080 ho         1 09X       0.506000
     22 H12          3.5020    20.2720    17.6840 ho         1 09X       0.514000
     23 H13          3.8200    22.0150    14.6600 ho         1 09X       0.517000
     24 NAF          0.2590    20.9740    13.2290 ns         1 09X      -0.495900
     25 H9          -0.5120    21.5370    13.5610 hn         1 09X       0.312500
     26 CAG          0.5500    20.9950    11.8820 c          1 09X       0.615100
@<TRIPOS>BOND
     1     1     2 1   
     2     1     7 1   
     3     1    11 1   
     4     1    12 1   
     5     2     3 1   
     6     2    10 1   
     7     2    13 1   
     8     3     4 1   
     9     3     8 1   
    10     3    14 1   
    11     4     9 1   
    12     4    15 1   
    13     4    16 1   
    14     5    17 1   
    15     5    18 1   
    16     5    19 1   
    17     5    26 1   
    18     6    26 2   
    19     7     8 1   
    20     7    20 1   
    21     7    24 1   
    22     9    21 1   
    23    10    22 1   
    24    11    23 1   
    25    24    25 1   
    26    24    26 1   
@<TRIPOS>SUBSTRUCTURE
     1 09X         1 TEMP              0 ****  ****    0 ROOT
