@<TRIPOS>MOLECULE
09Y
   48    50     1     0     0
SMALL
abcg2


@<TRIPOS>ATOM
      1 C14         -6.2100    28.5800   -16.8330 c          1 09Y       0.551200
      2 C19         -7.0170    31.8540   -15.2090 ca         1 09Y      -0.145900
      3 C20         -8.0020    31.4930   -14.2900 ca         1 09Y      -0.084000
      4 C01         -5.6750    33.2930   -11.1420 c3         1 09Y       0.159900
      5 C03         -3.9230    31.9740   -12.0240 ca         1 09Y       0.588300
      6 C04         -2.6320    31.9050   -12.5600 ca         1 09Y      -0.193000
      7 C05         -2.1760    30.6850   -13.0240 ca         1 09Y      -0.016300
      8 C06         -0.8720    30.5680   -13.7600 c3         1 09Y      -0.069100
      9 C07         -0.9610    31.2710   -15.1300 c3         1 09Y       0.103000
     10 C11         -4.1880    29.8220   -16.3030 cc         1 09Y      -0.072600
     11 C12         -4.7520    28.6780   -16.7860 cd         1 09Y       0.080900
     12 C17         -6.1960    30.7850   -15.8110 cd         1 09Y       0.530500
     13 C21         -8.7680    32.4580   -13.6550 ca         1 09Y      -0.118000
     14 C22         -8.5510    33.7960   -13.9460 ca         1 09Y      -0.089000
     15 C23         -7.5770    34.1550   -14.8660 ca         1 09Y      -0.120000
     16 C24         -6.7900    33.2050   -15.5130 ca         1 09Y      -0.021300
     17 C25         -5.7640    33.6570   -16.5120 c3         1 09Y      -0.048800
     18 C26         -3.0200    29.5780   -12.8970 ca         1 09Y      -0.202000
     19 C27         -4.2690    29.7580   -12.3420 ca         1 09Y       0.381900
     20 N08         -2.2580    31.0960   -15.7450 ns         1 09Y      -0.454900
     21 N16         -6.8370    29.6920   -16.3150 ns         1 09Y      -0.412400
     22 N18         -4.9140    30.8670   -15.8140 nc         1 09Y      -0.613300
     23 N28         -4.7260    30.9350   -11.9180 nb         1 09Y      -0.754000
     24 O10         -1.9900    28.9600   -16.4710 o          1 09Y      -0.649100
     25 O13         -4.0910    27.6190   -17.2240 oh         1 09Y      -0.499100
     26 O15         -6.8230    27.6300   -17.2780 o          1 09Y      -0.501000
     27 H1          -8.1600    30.4480   -14.0500 ha         1 09Y       0.119000
     28 H2          -5.8040    34.3400   -10.8790 h1         1 09Y       0.045700
     29 H3          -6.4060    33.0250   -11.9080 h1         1 09Y       0.045700
     30 H4          -5.8530    32.6770   -10.2590 h1         1 09Y       0.045700
     31 H5          -2.0260    32.8000   -12.6320 ha         1 09Y       0.133000
     32 H6          -0.6280    29.5150   -13.9000 hc         1 09Y       0.066200
     33 H7          -0.0550    31.0170   -13.1930 hc         1 09Y       0.066200
     34 H8          -0.1750    30.9060   -15.7900 h1         1 09Y       0.061700
     35 H9          -0.8120    32.3430   -15.0120 h1         1 09Y       0.061700
     36 H10         -9.5230    32.1640   -12.9380 ha         1 09Y       0.121000
     37 H11         -9.1410    34.5620   -13.4600 ha         1 09Y       0.117000
     38 H12         -7.4250    35.2030   -15.0970 ha         1 09Y       0.118000
     39 H13         -5.7770    33.0500   -17.4160 hc         1 09Y       0.050033
     40 H14         -5.9490    34.6910   -16.7990 hc         1 09Y       0.050033
     41 H15         -4.7550    33.6010   -16.1040 hc         1 09Y       0.050033
     42 H16         -2.7120    28.6010   -13.2450 ha         1 09Y       0.131000
     43 H17         -4.9470    28.9180   -12.2400 h4         1 09Y       0.018100
     44 H18         -2.9790    31.7560   -15.4860 hn         1 09Y       0.341500
     45 H19         -7.8510    29.6830   -16.3350 hn         1 09Y       0.337500
     46 H20         -3.1340    27.8080   -17.0760 ho         1 09Y       0.523000
     47 C09         -2.7110    29.9240   -16.1880 c          1 09Y       0.629300
     48 O02         -4.3430    33.1740   -11.6170 os         1 09Y      -0.462300
@<TRIPOS>BOND
     1     1    11 1   
     2     1    21 1   
     3     1    26 2   
     4     2     3 ar  
     5     2    12 1   
     6     2    16 ar  
     7     3    13 ar  
     8     3    27 1   
     9     4    28 1   
    10     4    29 1   
    11     4    30 1   
    12     4    48 1   
    13     5     6 ar  
    14     5    23 ar  
    15     5    48 1   
    16     6     7 ar  
    17     6    31 1   
    18     7     8 1   
    19     7    18 ar  
    20     8     9 1   
    21     8    32 1   
    22     8    33 1   
    23     9    20 1   
    24     9    34 1   
    25     9    35 1   
    26    10    11 2   
    27    10    22 1   
    28    10    47 1   
    29    11    25 1   
    30    12    21 1   
    31    12    22 2   
    32    13    14 ar  
    33    13    36 1   
    34    14    15 ar  
    35    14    37 1   
    36    15    16 ar  
    37    15    38 1   
    38    16    17 1   
    39    17    39 1   
    40    17    40 1   
    41    17    41 1   
    42    18    19 ar  
    43    18    42 1   
    44    19    23 ar  
    45    19    43 1   
    46    20    44 1   
    47    20    47 1   
    48    21    45 1   
    49    24    47 2   
    50    25    46 1   
@<TRIPOS>SUBSTRUCTURE
     1 09Y         1 TEMP              0 ****  ****    0 ROOT
