@<TRIPOS>MOLECULE
09Y
   48    50     1     0     0
SMALL
No Charge or Current Charge


@<TRIPOS>ATOM
      1 C14         -6.3450    28.7440   -17.2180 c          1 09Y       0.551200
      2 C19         -7.1080    31.8270   -15.2750 ca         1 09Y      -0.145900
      3 C20         -8.1840    31.4010   -14.4610 ca         1 09Y      -0.084000
      4 C01         -5.7920    33.4490   -11.4920 c3         1 09Y       0.159900
      5 C03         -3.8640    32.0380   -12.0360 ca         1 09Y       0.588300
      6 C04         -2.6740    31.9070   -12.7690 ca         1 09Y      -0.193000
      7 C05         -2.0500    30.6500   -12.8730 ca         1 09Y      -0.016300
      8 C06         -0.8080    30.4290   -13.7390 c3         1 09Y      -0.069100
      9 C07         -0.9010    31.0820   -15.1380 c3         1 09Y       0.103000
     10 C11         -4.2110    29.8310   -16.4490 cc         1 09Y      -0.072600
     11 C12         -4.8530    28.7880   -17.1100 cd         1 09Y       0.080900
     12 C17         -6.2910    30.7960   -15.9510 cd         1 09Y       0.530500
     13 C21         -8.9680    32.3280   -13.7560 ca         1 09Y      -0.118000
     14 C22         -8.6850    33.6970   -13.8460 ca         1 09Y      -0.089000
     15 C23         -7.6160    34.1370   -14.6400 ca         1 09Y      -0.120000
     16 C24         -6.8200    33.2190   -15.3560 ca         1 09Y      -0.021300
     17 C25         -5.6930    33.7720   -16.2260 c3         1 09Y      -0.048800
     18 C26         -2.6470    29.5820   -12.1850 ca         1 09Y      -0.202000
     19 C27         -3.8220    29.8020   -11.4500 ca         1 09Y       0.381900
     20 N08         -2.2390    30.9310   -15.7080 ns         1 09Y      -0.454900
     21 N16         -6.9480    29.7950   -16.6030 ns         1 09Y      -0.412400
     22 N18         -4.9630    30.8560   -15.8580 nc         1 09Y      -0.613300
     23 N28         -4.4300    31.0060   -11.3750 nb         1 09Y      -0.754000
     24 O10         -1.9930    28.9250   -16.7760 o          1 09Y      -0.649100
     25 O13         -4.1870    27.7510   -17.6930 oh         1 09Y      -0.499100
     26 O15         -6.9960    27.8760   -17.7850 o          1 09Y      -0.501000
     27 H1          -8.4090    30.3410   -14.3570 ha         1 09Y       0.119000
     28 H2          -6.1090    34.4950   -11.5930 h1         1 09Y       0.045700
     29 H3          -6.5060    32.8230   -12.0440 h1         1 09Y       0.045700
     30 H4          -5.8420    33.1800   -10.4290 h1         1 09Y       0.045700
     31 H5          -2.2670    32.7770   -13.2720 ha         1 09Y       0.133000
     32 H6          -0.6460    29.3540   -13.8810 hc         1 09Y       0.066200
     33 H7           0.0850    30.8060   -13.2270 hc         1 09Y       0.066200
     34 H8          -0.1540    30.6430   -15.8120 h1         1 09Y       0.061700
     35 H9          -0.6880    32.1560   -15.0530 h1         1 09Y       0.061700
     36 H10         -9.7910    31.9830   -13.1340 ha         1 09Y       0.121000
     37 H11         -9.2900    34.4170   -13.2990 ha         1 09Y       0.117000
     38 H12         -7.4060    35.2020   -14.7010 ha         1 09Y       0.118000
     39 H13         -5.6430    33.2610   -17.1940 hc         1 09Y       0.050033
     40 H14         -5.8310    34.8390   -16.4360 hc         1 09Y       0.050033
     41 H15         -4.7220    33.6610   -15.7290 hc         1 09Y       0.050033
     42 H16         -2.2190    28.5840   -12.2210 ha         1 09Y       0.131000
     43 H17         -4.3000    28.9840   -10.9120 h4         1 09Y       0.018100
     44 H18         -2.9690    31.5700   -15.4140 hn         1 09Y       0.341500
     45 H19         -7.9550    29.8130   -16.6480 hn         1 09Y       0.337500
     46 H20         -3.2230    27.9150   -17.5100 ho         1 09Y       0.523000
     47 C09         -2.7170    29.8200   -16.3510 c          1 09Y       0.629300
     48 O02         -4.4580    33.2770   -12.0060 os         1 09Y      -0.462300
@<TRIPOS>BOND
     1     1    11 1   
     2     1    21 1   
     3     1    26 2   
     4     2     3 ar  
     5     2    12 1   
     6     2    16 ar  
     7     3    13 ar  
     8     3    27 1   
     9     4    28 1   
    10     4    29 1   
    11     4    30 1   
    12     4    48 1   
    13     5     6 ar  
    14     5    23 ar  
    15     5    48 1   
    16     6     7 ar  
    17     6    31 1   
    18     7     8 1   
    19     7    18 ar  
    20     8     9 1   
    21     8    32 1   
    22     8    33 1   
    23     9    20 1   
    24     9    34 1   
    25     9    35 1   
    26    10    11 2   
    27    10    22 1   
    28    10    47 1   
    29    11    25 1   
    30    12    21 1   
    31    12    22 2   
    32    13    14 ar  
    33    13    36 1   
    34    14    15 ar  
    35    14    37 1   
    36    15    16 ar  
    37    15    38 1   
    38    16    17 1   
    39    17    39 1   
    40    17    40 1   
    41    17    41 1   
    42    18    19 ar  
    43    18    42 1   
    44    19    23 ar  
    45    19    43 1   
    46    20    44 1   
    47    20    47 1   
    48    21    45 1   
    49    24    47 2   
    50    25    46 1   
@<TRIPOS>SUBSTRUCTURE
     1 09Y         1 TEMP              0 ****  ****    0 ROOT
