@<TRIPOS>MOLECULE
09Z
   32    33     1     0     0
SMALL
bcc


@<TRIPOS>ATOM
      1 C1           4.8660    -0.0330    -1.3860 c3         1 09Z      -0.110600
      2 C2           4.4480     0.4910    -0.0180 c3         1 09Z       0.236500
      3 C3           5.3560     1.6110     0.4630 c3         1 09Z      -0.110600
      4 N4           3.0710     0.9780    -0.0390 nu         1 09Z      -0.854900
      5 C5           2.0130     0.1850     0.0600 cc         1 09Z       0.786300
      6 N6           2.0890    -1.1050     0.2830 nd         1 09Z      -0.827000
      7 C7           0.8600    -1.6590     0.3620 cd         1 09Z       0.770200
      8 C8          -0.2320    -0.7840     0.2060 cc         1 09Z      -0.398000
      9 S9           0.4020     0.8350    -0.0820 ss         1 09Z      -0.256300
     10 N10          0.7540    -2.9660     0.5800 nv         1 09Z      -0.940500
     11 C11         -1.5970    -1.1510     0.2010 c          1 09Z       0.652300
     12 C12         -2.6260    -0.0760     0.0600 ca         1 09Z      -0.264900
     13 C13         -2.6310     1.0750     0.8400 ca         1 09Z      -0.067000
     14 C14         -3.6540     1.9950     0.6710 ca         1 09Z      -0.257300
     15 C15         -4.6300     1.7320    -0.2780 ca         1 09Z       0.410200
     16 N16         -4.6420     0.6330    -1.0250 nb         1 09Z      -0.673000
     17 C17         -3.6700    -0.2490    -0.8460 ca         1 09Z       0.442200
     18 O18         -1.9780    -2.3250     0.2870 o          1 09Z      -0.602100
     19 H1           5.8890    -0.4090    -1.3490 hc         1 09Z       0.045700
     20 H1A          4.2210    -0.8490    -1.7120 hc         1 09Z       0.045700
     21 H1B          4.8240     0.7600    -2.1340 hc         1 09Z       0.045700
     22 H2           4.4840    -0.3270     0.7020 h1         1 09Z       0.083700
     23 H3           5.3490     2.4540    -0.2310 hc         1 09Z       0.045700
     24 H3A          5.0580     1.9720     1.4480 hc         1 09Z       0.045700
     25 H3B          6.3820     1.2500     0.5320 hc         1 09Z       0.045700
     26 HN4          2.9250     1.9470    -0.2780 hn         1 09Z       0.446800
     27 HN10         1.5800    -3.5270     0.6920 hn         1 09Z       0.461800
     28 HN1A        -0.1550    -3.3960     0.6160 hn         1 09Z       0.461800
     29 H13         -1.8670     1.2440     1.5880 ha         1 09Z       0.145000
     30 H14         -3.6990     2.8970     1.2650 ha         1 09Z       0.141000
     31 H15         -5.4380     2.4370    -0.4380 h4         1 09Z       0.017100
     32 H17         -3.7070    -1.1410    -1.4630 h4         1 09Z       0.031100
@<TRIPOS>BOND
     1     1     2 1   
     2     1    19 1   
     3     1    20 1   
     4     1    21 1   
     5     2     3 1   
     6     2     4 1   
     7     2    22 1   
     8     3    23 1   
     9     3    24 1   
    10     3    25 1   
    11     4     5 1   
    12     4    26 1   
    13     5     6 2   
    14     5     9 1   
    15     6     7 1   
    16     7     8 2   
    17     7    10 1   
    18     8     9 1   
    19     8    11 1   
    20    10    27 1   
    21    10    28 1   
    22    11    12 1   
    23    11    18 2   
    24    12    13 ar  
    25    12    17 ar  
    26    13    14 ar  
    27    13    29 1   
    28    14    15 ar  
    29    14    30 1   
    30    15    16 ar  
    31    15    31 1   
    32    16    17 ar  
    33    17    32 1   
@<TRIPOS>SUBSTRUCTURE
     1 09Z         1 TEMP              0 ****  ****    0 ROOT
