@<TRIPOS>MOLECULE
09Z
   32    33     1     0     0
SMALL
No Charge or Current Charge


@<TRIPOS>ATOM
      1 C1           5.2060    -0.1640    -1.1110 c3         1 09Z      -0.110600
      2 C2           4.4310     0.4980     0.0440 c3         1 09Z       0.236500
      3 C3           5.1470     1.7500     0.5820 c3         1 09Z      -0.110600
      4 N4           3.0930     0.8740    -0.4220 nu         1 09Z      -0.910100
      5 C5           1.9500     0.1410    -0.3360 cc         1 09Z       0.786300
      6 N6           1.9730    -1.0380     0.2400 nd         1 09Z      -0.827000
      7 C7           0.7220    -1.5470     0.1990 cd         1 09Z       0.704900
      8 C8          -0.2410    -0.8360    -0.4400 cc         1 09Z      -0.477600
      9 S9           0.4150     0.6960    -0.9600 ss         1 09Z      -0.111400
     10 N10          0.6090    -2.7090     0.8040 nv         1 09Z      -1.050900
     11 C11         -1.6630    -1.2050    -0.4070 c          1 09Z       0.652300
     12 C12         -2.6660    -0.1260    -0.1260 ca         1 09Z      -0.199600
     13 C13         -2.3780     1.0210     0.6440 ca         1 09Z      -0.049000
     14 C14         -3.4050     1.9540     0.8570 ca         1 09Z      -0.174000
     15 C15         -4.6750     1.7140     0.3120 ca         1 09Z       0.344900
     16 N16         -4.9650     0.6080    -0.4090 nb         1 09Z      -0.673000
     17 C17         -3.9740    -0.2930    -0.6120 ca         1 09Z       0.376900
     18 O18         -2.0130    -2.3770    -0.4550 o          1 09Z      -0.602100
     19 H1           6.2080    -0.4610    -0.7790 hc         1 09Z       0.045700
     20 H1A          4.6850    -1.0640    -1.4590 hc         1 09Z       0.045700
     21 H1B          5.3140     0.5240    -1.9580 hc         1 09Z       0.045700
     22 H2           4.3610    -0.2260     0.8690 h1         1 09Z       0.083700
     23 H3           5.2650     2.5070    -0.2020 hc         1 09Z       0.045700
     24 H3A          4.5800     2.1920     1.4100 hc         1 09Z       0.045700
     25 H3B          6.1430     1.4880     0.9580 hc         1 09Z       0.045700
     26 HN4          2.9740     1.7650    -0.8950 hn         1 09Z       0.502000
     27 HN10         1.4880    -3.1930     0.9260 hn         1 09Z       0.517000
     28 HN1A        -0.1790    -3.2740     0.5070 hn         1 09Z       0.517000
     29 H13         -1.3990     1.1810     1.0900 ha         1 09Z       0.127000
     30 H14         -3.2260     2.8510     1.4440 ha         1 09Z       0.123000
     31 H15         -5.4890     2.4220     0.4650 h4         1 09Z       0.017100
     32 H17         -4.2440    -1.1710    -1.1990 h4         1 09Z       0.031100
@<TRIPOS>BOND
     1     1     2 1   
     2     1    19 1   
     3     1    20 1   
     4     1    21 1   
     5     2     3 1   
     6     2     4 1   
     7     2    22 1   
     8     3    23 1   
     9     3    24 1   
    10     3    25 1   
    11     4     5 1   
    12     4    26 1   
    13     5     6 2   
    14     5     9 1   
    15     6     7 1   
    16     7     8 2   
    17     7    10 1   
    18     8     9 1   
    19     8    11 1   
    20    10    27 1   
    21    10    28 1   
    22    11    12 1   
    23    11    18 2   
    24    12    13 ar  
    25    12    17 ar  
    26    13    14 ar  
    27    13    29 1   
    28    14    15 ar  
    29    14    30 1   
    30    15    16 ar  
    31    15    31 1   
    32    16    17 ar  
    33    17    32 1   
@<TRIPOS>SUBSTRUCTURE
     1 09Z         1 TEMP              0 ****  ****    0 ROOT
