@<TRIPOS>MOLECULE
0A0
   17    16     1     0     0
SMALL
abcg2


@<TRIPOS>ATOM
      1 N           24.1010     8.1130   -14.1050 n8         1 0A0      -1.011200
      2 CA          23.4170     9.3740   -13.8160 c3         1 0A0       0.057200
      3 C           24.0340    10.6060   -14.5450 c          1 0A0       0.727000
      4 O           23.7260    11.7360   -14.1080 o          1 0A0      -0.762000
      5 CB          23.3770     9.5770   -12.3040 c3         1 0A0      -0.163400
      6 CG          24.7210     9.7280   -11.5660 c          1 0A0       0.725000
      7 OD1         25.7800     9.6850   -12.2310 o          1 0A0      -0.768500
      8 OD2         24.6410     9.8790   -10.3290 o          1 0A0      -0.768500
      9 OXT         24.7250    10.3760   -15.5600 o          1 0A0      -0.762000
     10 CM          21.9790     9.2480   -14.3350 c3         1 0A0      -0.056100
     11 HN1         24.2670     8.0860   -15.1050 hn         1 0A0       0.388500
     12 HN2         25.0260     8.1970   -13.6980 hn         1 0A0       0.388500
     13 HBC1        22.7740    10.4600   -12.0790 hc         1 0A0       0.008700
     14 HBC2        22.8380     8.7370   -11.8480 hc         1 0A0       0.008700
     15 HMC1        21.4770     8.3910   -13.8790 hc         1 0A0      -0.003633
     16 HMC2        21.3920    10.1400   -14.1130 hc         1 0A0      -0.003633
     17 HMC3        21.9620     9.1020   -15.4190 hc         1 0A0      -0.003633
@<TRIPOS>BOND
     1     1     2 1   
     2     1    11 1   
     3     1    12 1   
     4     2     3 1   
     5     2     5 1   
     6     2    10 1   
     7     3     4 1   
     8     3     9 1   
     9     5     6 1   
    10     5    13 1   
    11     5    14 1   
    12     6     7 1   
    13     6     8 1   
    14    10    15 1   
    15    10    16 1   
    16    10    17 1   
@<TRIPOS>SUBSTRUCTURE
     1 0A0         1 TEMP              0 ****  ****    0 ROOT
