@<TRIPOS>MOLECULE
0A0
   17    16     1     0     0
SMALL
No Charge or Current Charge


@<TRIPOS>ATOM
      1 N           24.1310     8.2650   -14.3830 n8         1 0A0      -1.011200
      2 CA          23.3520     9.4320   -13.8360 c3         1 0A0       0.057200
      3 C           23.8980    10.8720   -14.2970 c          1 0A0       0.727000
      4 O           23.2020    11.8660   -14.1220 o          1 0A0      -0.762000
      5 CB          23.3990     9.3280   -12.2790 c3         1 0A0      -0.163400
      6 CG          24.8300     9.5380   -11.7380 c          1 0A0       0.725000
      7 OD1         25.5720     8.5670   -11.6720 o          1 0A0      -0.768500
      8 OD2         25.1690    10.6620   -11.4010 o          1 0A0      -0.768500
      9 OXT         24.9430    10.9140   -14.9400 o          1 0A0      -0.762000
     10 CM          21.8820     9.2610   -14.3210 c3         1 0A0      -0.056100
     11 HN1         24.7280     8.6390   -15.1320 hn         1 0A0       0.388500
     12 HN2         24.8170     8.0010   -13.6630 hn         1 0A0       0.388500
     13 HBC1        22.7360    10.1140   -11.8960 hc         1 0A0       0.008700
     14 HBC2        23.0500     8.3170   -12.0290 hc         1 0A0       0.008700
     15 HMC1        21.4840     8.2750   -14.0500 hc         1 0A0      -0.003633
     16 HMC2        21.2260    10.0160   -13.8720 hc         1 0A0      -0.003633
     17 HMC3        21.8180     9.3660   -15.4110 hc         1 0A0      -0.003633
@<TRIPOS>BOND
     1     1     2 1   
     2     1    11 1   
     3     1    12 1   
     4     2     3 1   
     5     2     5 1   
     6     2    10 1   
     7     3     4 1   
     8     3     9 1   
     9     5     6 1   
    10     5    13 1   
    11     5    14 1   
    12     6     7 1   
    13     6     8 1   
    14    10    15 1   
    15    10    16 1   
    16    10    17 1   
@<TRIPOS>SUBSTRUCTURE
     1 0A0         1 TEMP              0 ****  ****    0 ROOT
