@<TRIPOS>MOLECULE
0A1
   26    26     1     0     0
SMALL
bcc


@<TRIPOS>ATOM
      1 N            3.1660    24.2560     1.3700 n8         1 0A1      -0.893800
      2 CA           3.1130    25.6650     1.7300 c3         1 0A1       0.017500
      3 CB           1.7230    26.0510     2.2240 c3         1 0A1       0.009900
      4 CG           1.2450    25.4660     3.5320 ca         1 0A1      -0.051300
      5 CD1          1.9440    24.5260     4.2760 ca         1 0A1      -0.085000
      6 CE1          1.4580    24.0350     5.4870 ca         1 0A1      -0.197500
      7 CZ           0.2370    24.4800     5.9800 ca         1 0A1       0.100100
      8 OH          -0.3200    24.0680     7.1400 os         1 0A1      -0.335900
      9 CM           0.3930    23.1450     7.9340 c3         1 0A1       0.133700
     10 CE2         -0.4850    25.4200     5.2430 ca         1 0A1      -0.197500
     11 CD2          0.0180    25.8960     4.0460 ca         1 0A1      -0.085000
     12 C            4.2420    26.0510     2.7200 c          1 0A1       0.929600
     13 O            5.2000    25.2570     2.8230 o          1 0A1      -0.833300
     14 OXT          4.1180    27.1510     3.2900 o          1 0A1      -0.833300
     15 HN1          2.7290    24.1160     0.4680 hn         1 0A1       0.326800
     16 HN2          4.1360    23.9890     1.2740 hn         1 0A1       0.326800
     17 HA           3.2940    26.3080     0.8490 h1         1 0A1      -0.003300
     18 HBC1         1.6820    27.1400     2.3010 hc         1 0A1       0.027700
     19 HBC2         0.9970    25.7940     1.4440 hc         1 0A1       0.027700
     20 HD1          2.8910    24.1490     3.9180 ha         1 0A1       0.144500
     21 HD2         -0.5600    26.6310     3.4960 ha         1 0A1       0.144500
     22 HE1          2.0510    23.3060     6.0240 ha         1 0A1       0.121000
     23 HE2         -1.4370    25.7770     5.6170 ha         1 0A1       0.121000
     24 HMC1         0.5500    22.1930     7.4180 h1         1 0A1       0.028700
     25 HMC2         1.3650    23.5360     8.2460 h1         1 0A1       0.028700
     26 HMC3        -0.2110    22.9640     8.8200 h1         1 0A1       0.028700
@<TRIPOS>BOND
     1     1     2 1   
     2     1    15 1   
     3     1    16 1   
     4     2     3 1   
     5     2    12 1   
     6     2    17 1   
     7     3     4 1   
     8     3    18 1   
     9     3    19 1   
    10     4     5 ar  
    11     4    11 ar  
    12     5     6 ar  
    13     5    20 1   
    14     6     7 ar  
    15     6    22 1   
    16     7     8 1   
    17     7    10 ar  
    18     8     9 1   
    19     9    24 1   
    20     9    25 1   
    21     9    26 1   
    22    10    11 ar  
    23    10    23 1   
    24    11    21 1   
    25    12    13 1   
    26    12    14 1   
@<TRIPOS>SUBSTRUCTURE
     1 0A1         1 TEMP              0 ****  ****    0 ROOT
