@<TRIPOS>MOLECULE
0A1
   26    26     1     0     0
SMALL
No Charge or Current Charge


@<TRIPOS>ATOM
      1 N            3.0630    24.1550     1.3970 n8         1 0A1      -1.004200
      2 CA           3.1770    25.6270     1.7220 c3         1 0A1       0.017500
      3 CB           1.8400    26.1810     2.3130 c3         1 0A1       0.009900
      4 CG           1.2900    25.5420     3.6000 ca         1 0A1      -0.051300
      5 CD1          2.0560    24.6980     4.4350 ca         1 0A1      -0.067000
      6 CE1          1.5010    24.1520     5.6080 ca         1 0A1      -0.179500
      7 CZ           0.1680    24.4460     5.9650 ca         1 0A1       0.100100
      8 OH          -0.4280    23.9400     7.1010 os         1 0A1      -0.359100
      9 CM           0.2700    23.0700     8.0100 c3         1 0A1       0.156900
     10 CE2         -0.5940    25.2870     5.1410 ca         1 0A1      -0.179500
     11 CD2         -0.0390    25.8320     3.9700 ca         1 0A1      -0.067000
     12 C            4.4780    26.1010     2.5150 c          1 0A1       0.719000
     13 O            5.5520    25.6010     2.1990 o          1 0A1      -0.728000
     14 OXT          4.3780    26.9300     3.4100 o          1 0A1      -0.728000
     15 HN1          2.3140    24.0140     0.7090 hn         1 0A1       0.382000
     16 HN2          3.9150    23.8620     0.9030 hn         1 0A1       0.382000
     17 HA           3.2810    26.1120     0.7420 h1         1 0A1      -0.003300
     18 HBC1         1.9420    27.2630     2.4630 hc         1 0A1       0.027700
     19 HBC2         1.0770    26.0810     1.5310 hc         1 0A1       0.027700
     20 HD1          3.0840    24.4540     4.1850 ha         1 0A1       0.126500
     21 HD2         -0.6450    26.4850     3.3460 ha         1 0A1       0.126500
     22 HE1          2.1210    23.5060     6.2220 ha         1 0A1       0.103000
     23 HE2         -1.6210    25.5200     5.4110 ha         1 0A1       0.103000
     24 HMC1         0.5910    22.1520     7.5020 h1         1 0A1       0.028700
     25 HMC2         1.1530    23.5700     8.4280 h1         1 0A1       0.028700
     26 HMC3        -0.3860    22.7860     8.8430 h1         1 0A1       0.028700
@<TRIPOS>BOND
     1     1     2 1   
     2     1    15 1   
     3     1    16 1   
     4     2     3 1   
     5     2    12 1   
     6     2    17 1   
     7     3     4 1   
     8     3    18 1   
     9     3    19 1   
    10     4     5 ar  
    11     4    11 ar  
    12     5     6 ar  
    13     5    20 1   
    14     6     7 ar  
    15     6    22 1   
    16     7     8 1   
    17     7    10 ar  
    18     8     9 1   
    19     9    24 1   
    20     9    25 1   
    21     9    26 1   
    22    10    11 ar  
    23    10    23 1   
    24    11    21 1   
    25    12    13 1   
    26    12    14 1   
@<TRIPOS>SUBSTRUCTURE
     1 0A1         1 TEMP              0 ****  ****    0 ROOT
