@<TRIPOS>MOLECULE
0A3
   42    43     1     0     0
SMALL
No Charge or Current Charge


@<TRIPOS>ATOM
      1 OG           1.5330    -3.7210    -0.7970 o          1 0A3      -0.714500
      2 S1           1.6810    -0.1930     1.5630 ss         1 0A3      -0.575000
      3 C2           3.0280     1.0500     1.5070 c6         1 0A3       0.146800
      4 C3           4.2810     0.6330     0.7440 c2         1 0A3      -0.288400
      5 C5           5.5150     1.4110     1.1820 c3         1 0A3       0.011100
      6 C4           4.2510    -0.3500    -0.2120 ce         1 0A3       0.079800
      7 C9           5.4810    -0.8600    -1.0230 c          1 0A3       0.715200
      8 O4A          6.6040    -0.4140    -0.8190 o          1 0A3      -0.726000
      9 O4B          5.2850    -1.7310    -1.8670 o          1 0A3      -0.726000
     10 N5           3.0310    -0.9950    -0.5810 nu         1 0A3      -0.760200
     11 C6           1.6910    -0.5370    -0.2360 c6         1 0A3       0.402500
     12 C7           0.5840    -1.5480    -0.6560 c3         1 0A3      -0.047300
     13 C8           0.8380    -2.9790    -0.1160 c          1 0A3       0.723000
     14 O9           0.1720    -3.3810     0.8310 o          1 0A3      -0.714500
     15 N10         -0.7920    -1.0910    -0.3150 ns         1 0A3      -0.429900
     16 C11         -1.4340     0.0230    -0.8340 c          1 0A3       0.510800
     17 O12         -0.8790     0.6840    -1.7090 o          1 0A3      -0.621100
     18 C13         -2.8150     0.3090    -0.2320 ce         1 0A3       0.300300
     19 N16         -3.2640    -0.4710     0.7190 n2         1 0A3      -0.348700
     20 O17         -3.6130    -1.7630     0.2780 os         1 0A3      -0.278000
     21 C18         -4.1060    -2.5490     1.3770 c3         1 0A3       0.160900
     22 C14         -3.6380     1.4750    -0.6470 cc         1 0A3       0.318700
     23 C15         -4.8710     1.7960    -0.1050 cd         1 0A3      -0.252000
     24 S16         -5.5590     3.2350    -0.8400 ss         1 0A3      -0.186400
     25 C17         -4.1120     3.2800    -1.8160 cd         1 0A3       0.715300
     26 N18         -3.8610     4.1980    -2.7550 nv         1 0A3      -1.033900
     27 N19         -3.2230     2.3450    -1.6380 nc         1 0A3      -0.662000
     28 H2C1         2.6140     1.9590     1.0470 h1         1 0A3       0.022200
     29 H2C2         3.2790     1.2930     2.5490 h1         1 0A3       0.022200
     30 H6           1.4900     0.4240    -0.7340 h2         1 0A3       0.056700
     31 H3'1         5.2710     2.2080     1.8950 hc         1 0A3       0.009033
     32 H3'2         6.2440     0.7530     1.6700 hc         1 0A3       0.009033
     33 H3'3         6.0030     1.8950     0.3280 hc         1 0A3       0.009033
     34 H5           3.1260    -1.7510    -1.2650 hn         1 0A3       0.533000
     35 H7           0.6300    -1.6260    -1.7490 h1         1 0A3       0.077700
     36 H10         -1.3030    -1.6110     0.3940 hn         1 0A3       0.343500
     37 H181        -3.3420    -2.6500     2.1580 h1         1 0A3       0.027033
     38 H182        -4.9980    -2.0870     1.8180 h1         1 0A3       0.027033
     39 H183        -4.3770    -3.5550     1.0320 h1         1 0A3       0.027033
     40 H15         -5.4050     1.2680     0.6760 h4         1 0A3       0.160000
     41 HA1         -4.6580     4.7020    -3.1260 hn         1 0A3       0.477000
     42 HB2         -3.1280     3.9590    -3.4110 hn         1 0A3       0.477000
@<TRIPOS>BOND
     1     1    13 1   
     2     2     3 1   
     3     2    11 1   
     4     3     4 1   
     5     3    28 1   
     6     3    29 1   
     7     4     5 1   
     8     4     6 2   
     9     5    31 1   
    10     5    32 1   
    11     5    33 1   
    12     6     7 1   
    13     6    10 1   
    14     7     8 1   
    15     7     9 1   
    16    10    11 1   
    17    10    34 1   
    18    11    12 1   
    19    11    30 1   
    20    12    13 1   
    21    12    15 1   
    22    12    35 1   
    23    13    14 1   
    24    15    16 1   
    25    15    36 1   
    26    16    17 2   
    27    16    18 1   
    28    18    19 2   
    29    18    22 1   
    30    19    20 1   
    31    20    21 1   
    32    21    37 1   
    33    21    38 1   
    34    21    39 1   
    35    22    23 2   
    36    22    27 1   
    37    23    24 1   
    38    23    40 1   
    39    24    25 1   
    40    25    26 1   
    41    25    27 2   
    42    26    41 1   
    43    26    42 1   
@<TRIPOS>SUBSTRUCTURE
     1 0A3         1 TEMP              0 ****  ****    0 ROOT
