@<TRIPOS>MOLECULE
0A3
   42    43     1     0     0
SMALL
bcc


@<TRIPOS>ATOM
      1 OG           2.0040    -3.0890     1.4860 o          1 0A3      -0.819800
      2 S1           1.3540     0.5540     1.4340 ss         1 0A3      -0.479200
      3 C2           2.2850     1.8310     0.5590 c6         1 0A3       0.098900
      4 C3           3.5280     1.3360    -0.1370 c2         1 0A3      -0.288400
      5 C5           4.5180     2.4490    -0.3590 c3         1 0A3       0.011100
      6 C4           3.7250     0.0380    -0.4530 ce         1 0A3       0.079800
      7 C9           5.0610    -0.5760    -0.8760 c          1 0A3       0.925800
      8 O4A          5.9580     0.1680    -1.3100 o          1 0A3      -0.831300
      9 O4B          5.1420    -1.8120    -0.7190 o          1 0A3      -0.831300
     10 N5           2.7220    -0.9250    -0.3800 nu         1 0A3      -0.705000
     11 C6           1.3970    -0.5640    -0.0370 c6         1 0A3       0.354600
     12 C7           0.5060    -1.7900     0.1970 c3         1 0A3      -0.047300
     13 C8           0.8960    -2.5220     1.5050 c          1 0A3       0.933600
     14 O9           0.0880    -2.4610     2.4470 o          1 0A3      -0.819800
     15 N10         -0.8750    -1.3860     0.2420 ns         1 0A3      -0.496900
     16 C11         -1.5990    -1.0870    -0.8330 c          1 0A3       0.577800
     17 O12         -1.2420    -1.2210    -1.9930 o          1 0A3      -0.621100
     18 C13         -2.9550    -0.5020    -0.5110 ce         1 0A3       0.300300
     19 N16         -4.0280    -1.1800    -0.4500 n2         1 0A3      -0.447200
     20 O17         -3.8170    -2.5090    -0.6340 os         1 0A3      -0.156300
     21 C18         -5.0400    -3.2180    -0.5490 c3         1 0A3       0.137700
     22 C14         -2.9920     0.9430    -0.2960 cc         1 0A3       0.384000
     23 C15         -4.0310     1.6540     0.2110 cd         1 0A3      -0.190400
     24 S16         -3.5920     3.3180     0.3060 ss         1 0A3      -0.331300
     25 C17         -2.0260     2.9160    -0.3540 cd         1 0A3       0.715300
     26 N18         -1.0710     3.8600    -0.5120 nv         1 0A3      -0.923500
     27 N19         -1.8670     1.6570    -0.6130 nc         1 0A3      -0.662000
     28 H2C1         1.6150     2.3580    -0.1280 h1         1 0A3       0.022200
     29 H2C2         2.5750     2.5670     1.3150 h1         1 0A3       0.022200
     30 H6           0.9630     0.0370    -0.8420 h2         1 0A3       0.056700
     31 H3'1         3.9870     3.4010    -0.4400 hc         1 0A3       0.009033
     32 H3'2         5.2090     2.5540     0.4830 hc         1 0A3       0.009033
     33 H3'3         5.1150     2.3150    -1.2520 hc         1 0A3       0.009033
     34 H5           3.0350    -1.8010     0.0180 hn         1 0A3       0.477800
     35 H7           0.6570    -2.4700    -0.6470 h1         1 0A3       0.077700
     36 H10         -1.2640    -1.2680     1.1670 hn         1 0A3       0.343500
     37 H181        -5.5000    -3.1100     0.4350 h1         1 0A3       0.027033
     38 H182        -5.7480    -2.8940    -1.3140 h1         1 0A3       0.027033
     39 H183        -4.7920    -4.2650    -0.7120 h1         1 0A3       0.027033
     40 H15         -4.9960     1.3060     0.5390 h4         1 0A3       0.178000
     41 HA1         -1.3530     4.8220    -0.5960 hn         1 0A3       0.421800
     42 HB2         -0.3010     3.6040    -1.1100 hn         1 0A3       0.421800
@<TRIPOS>BOND
     1     1    13 1   
     2     2     3 1   
     3     2    11 1   
     4     3     4 1   
     5     3    28 1   
     6     3    29 1   
     7     4     5 1   
     8     4     6 2   
     9     5    31 1   
    10     5    32 1   
    11     5    33 1   
    12     6     7 1   
    13     6    10 1   
    14     7     8 1   
    15     7     9 1   
    16    10    11 1   
    17    10    34 1   
    18    11    12 1   
    19    11    30 1   
    20    12    13 1   
    21    12    15 1   
    22    12    35 1   
    23    13    14 1   
    24    15    16 1   
    25    15    36 1   
    26    16    17 2   
    27    16    18 1   
    28    18    19 2   
    29    18    22 1   
    30    19    20 1   
    31    20    21 1   
    32    21    37 1   
    33    21    38 1   
    34    21    39 1   
    35    22    23 2   
    36    22    27 1   
    37    23    24 1   
    38    23    40 1   
    39    24    25 1   
    40    25    26 1   
    41    25    27 2   
    42    26    41 1   
    43    26    42 1   
@<TRIPOS>SUBSTRUCTURE
     1 0A3         1 TEMP              0 ****  ****    0 ROOT
