@<TRIPOS>MOLECULE
0A4
   35    36     1     0     0
SMALL
No Charge or Current Charge


@<TRIPOS>ATOM
      1 OG          -1.3260     4.5330     0.5290 o          1 0A4      -0.723500
      2 S1          -3.2850     1.5260    -0.4840 ss         1 0A4      -0.433000
      3 C2          -4.1320    -0.0680    -0.1540 c6         1 0A4       0.068800
      4 C3          -3.2400    -1.2750    -0.4750 ce         1 0A4      -0.179800
      5 C5          -3.7410    -2.5200    -0.2840 c2         1 0A4      -0.311000
      6 C4          -1.8570    -1.0110    -0.9930 ce         1 0A4       0.417600
      7 C9          -1.2690    -1.8330    -2.1800 c          1 0A4       0.645700
      8 O4A         -1.9830    -2.6350    -2.7780 o          1 0A4      -0.718000
      9 O4B         -0.1020    -1.6580    -2.5320 o          1 0A4      -0.718000
     10 N5          -1.1030    -0.1270    -0.3760 n2         1 0A4      -0.622900
     11 C6          -1.6960     1.0420     0.2870 c6         1 0A4       0.277500
     12 C7          -0.6990     2.2410     0.2820 c3         1 0A4      -0.014300
     13 C8          -1.2690     3.4420     1.0810 c          1 0A4       0.730000
     14 O9          -1.5190     3.2810     2.2690 o          1 0A4      -0.723500
     15 N10          0.6450     1.8910     0.8220 ns         1 0A4      -0.443900
     16 C11          1.7860     1.7080     0.0700 c          1 0A4       0.597100
     17 O12          1.8170     1.8830    -1.1420 o          1 0A4      -0.610100
     18 C13          3.0270     1.2830     0.8710 c3         1 0A4      -0.111100
     19 C14          3.3870    -0.1780     0.7330 cc         1 0A4      -0.141300
     20 C15          4.6430    -0.7300     0.7280 cd         1 0A4      -0.154000
     21 C16          4.6450    -2.1440     0.5970 cd         1 0A4      -0.138000
     22 C17          3.3890    -2.6860     0.5020 cc         1 0A4      -0.281000
     23 S19          2.1530    -1.4330     0.5740 ss         1 0A4       0.221000
     24 H2C1        -4.4140    -0.0870     0.9090 h1         1 0A4       0.049700
     25 H2C2        -5.0530    -0.1000    -0.7540 h1         1 0A4       0.049700
     26 H6          -1.9190     0.7820     1.3340 h2         1 0A4       0.084700
     27 H3'1        -4.7530    -2.6800     0.0910 ha         1 0A4       0.156000
     28 H3'2        -3.1560    -3.4170    -0.4890 ha         1 0A4       0.156000
     29 H7          -0.5850     2.5700    -0.7580 h1         1 0A4       0.056700
     30 H10          0.7310     1.7380     1.8200 hn         1 0A4       0.322500
     31 H131         3.8740     1.8850     0.5230 hc         1 0A4       0.062700
     32 H132         2.8590     1.4850     1.9350 hc         1 0A4       0.062700
     33 H151         5.5510    -0.1420     0.8190 ha         1 0A4       0.128000
     34 H16          5.5530    -2.7390     0.5750 ha         1 0A4       0.108000
     35 H17          3.0960    -3.7220     0.3960 h4         1 0A4       0.129000
@<TRIPOS>BOND
     1     1    13 1   
     2     2     3 1   
     3     2    11 1   
     4     3     4 1   
     5     3    24 1   
     6     3    25 1   
     7     4     5 2   
     8     4     6 1   
     9     5    27 1   
    10     5    28 1   
    11     6     7 1   
    12     6    10 2   
    13     7     8 1   
    14     7     9 1   
    15    10    11 1   
    16    11    12 1   
    17    11    26 1   
    18    12    13 1   
    19    12    15 1   
    20    12    29 1   
    21    13    14 1   
    22    15    16 1   
    23    15    30 1   
    24    16    17 2   
    25    16    18 1   
    26    18    19 1   
    27    18    31 1   
    28    18    32 1   
    29    19    20 2   
    30    19    23 1   
    31    20    21 1   
    32    20    33 1   
    33    21    22 2   
    34    21    34 1   
    35    22    23 1   
    36    22    35 1   
@<TRIPOS>SUBSTRUCTURE
     1 0A4         1 TEMP              0 ****  ****    0 ROOT
