@<TRIPOS>MOLECULE
0A4
   35    36     1     0     0
SMALL
abcg2


@<TRIPOS>ATOM
      1 OG          -0.6930     3.5200    -1.0740 o          1 0A4      -0.723500
      2 S1          -3.1790     1.6940    -0.5880 ss         1 0A4      -0.433000
      3 C2          -4.5160     0.6520     0.0580 c6         1 0A4       0.068800
      4 C3          -4.2280    -0.7750    -0.2750 ce         1 0A4      -0.179800
      5 C5          -5.1280    -1.5600    -0.8700 c2         1 0A4      -0.311000
      6 C4          -2.8930    -1.2730     0.1250 ce         1 0A4       0.417600
      7 C9          -2.6780    -2.7790     0.2240 c          1 0A4       0.645700
      8 O4A         -2.4930    -3.3630    -0.8580 o          1 0A4      -0.718000
      9 O4B         -2.7010    -3.2560     1.3690 o          1 0A4      -0.718000
     10 N5          -1.9030    -0.5440     0.4500 n2         1 0A4      -0.622900
     11 C6          -1.8660     0.8860     0.3950 c6         1 0A4       0.277500
     12 C7          -0.5080     1.3380    -0.1630 c3         1 0A4      -0.014300
     13 C8          -0.4160     2.8830    -0.0420 c          1 0A4       0.730000
     14 O9          -0.1420     3.3320     1.0830 o          1 0A4      -0.723500
     15 N10          0.5180     0.6580     0.5890 ns         1 0A4      -0.443900
     16 C11          1.8190     0.9100     0.4130 c          1 0A4       0.597100
     17 O12          2.2440     1.7540    -0.3610 o          1 0A4      -0.610100
     18 C13          2.7530     0.0790     1.2840 c3         1 0A4      -0.111100
     19 C14          4.0070    -0.2950     0.5710 cc         1 0A4      -0.141300
     20 C15          5.2410     0.2700     0.6800 cd         1 0A4      -0.154000
     21 C16          6.2060    -0.3210    -0.1840 cd         1 0A4      -0.138000
     22 C17          5.6840    -1.3240    -0.9400 cc         1 0A4      -0.281000
     23 S19          4.0190    -1.5580    -0.6020 ss         1 0A4       0.221000
     24 H2C1        -4.5990     0.8010     1.1380 h1         1 0A4       0.049700
     25 H2C2        -5.4470     0.9890    -0.3970 h1         1 0A4       0.049700
     26 H6          -1.9440     1.2530     1.4250 h2         1 0A4       0.084700
     27 H3'1        -6.1070    -1.1810    -1.1310 ha         1 0A4       0.156000
     28 H3'2        -4.9170    -2.5870    -1.1310 ha         1 0A4       0.156000
     29 H7          -0.4570     1.0490    -1.2190 h1         1 0A4       0.056700
     30 H10          0.2380    -0.1650     1.1020 hn         1 0A4       0.322500
     31 H131         3.0170     0.6900     2.1510 hc         1 0A4       0.062700
     32 H132         2.2430    -0.8040     1.6740 hc         1 0A4       0.062700
     33 H151         5.4540     1.0850     1.3590 ha         1 0A4       0.128000
     34 H16          7.2400    -0.0120    -0.2370 ha         1 0A4       0.108000
     35 H17          6.1870    -1.9410    -1.6690 h4         1 0A4       0.129000
@<TRIPOS>BOND
     1     1    13 1   
     2     2     3 1   
     3     2    11 1   
     4     3     4 1   
     5     3    24 1   
     6     3    25 1   
     7     4     5 2   
     8     4     6 1   
     9     5    27 1   
    10     5    28 1   
    11     6     7 1   
    12     6    10 2   
    13     7     8 1   
    14     7     9 1   
    15    10    11 1   
    16    11    12 1   
    17    11    26 1   
    18    12    13 1   
    19    12    15 1   
    20    12    29 1   
    21    13    14 1   
    22    15    16 1   
    23    15    30 1   
    24    16    17 2   
    25    16    18 1   
    26    18    19 1   
    27    18    31 1   
    28    18    32 1   
    29    19    20 2   
    30    19    23 1   
    31    20    21 1   
    32    20    33 1   
    33    21    22 2   
    34    21    34 1   
    35    22    23 1   
    36    22    35 1   
@<TRIPOS>SUBSTRUCTURE
     1 0A4         1 TEMP              0 ****  ****    0 ROOT
