@<TRIPOS>MOLECULE
0A5
   13    12     1     0     0
SMALL
abcg2


@<TRIPOS>ATOM
      1 C1           0.6070    -0.9150     0.0290 c3         1 0A5       0.122600
      2 C2          -3.1540     0.1030     0.0010 c          1 0A5       0.720000
      3 O1          -3.0240     1.3420     0.0000 o          1 0A5      -0.736500
      4 C3          -1.8710    -0.7530     0.0290 c3         1 0A5      -0.213400
      5 C4          -0.5690     0.0360     0.0080 c3         1 0A5      -0.060400
      6 OXT         -4.2280    -0.5320    -0.0160 o          1 0A5      -0.736500
      7 BR1          2.3340     0.0520    -0.0020 br         1 0A5      -0.355000
      8 H            0.6240    -1.5260     0.9320 h1         1 0A5       0.054700
      9 HA           0.6190    -1.5720    -0.8400 h1         1 0A5       0.054700
     10 H2          -1.9060    -1.3920     0.9190 hc         1 0A5       0.017200
     11 H2A         -1.9030    -1.4440    -0.8220 hc         1 0A5       0.017200
     12 H3          -0.5230     0.7050     0.8690 hc         1 0A5       0.058200
     13 H3A         -0.5260     0.6620    -0.8850 hc         1 0A5       0.058200
@<TRIPOS>BOND
     1     1     5 1   
     2     1     7 1   
     3     1     8 1   
     4     1     9 1   
     5     2     3 1   
     6     2     4 1   
     7     2     6 1   
     8     4     5 1   
     9     4    10 1   
    10     4    11 1   
    11     5    12 1   
    12     5    13 1   
@<TRIPOS>SUBSTRUCTURE
     1 0A5         1 TEMP              0 ****  ****    0 ROOT
