@<TRIPOS>MOLECULE
0A5
   13    12     1     0     0
SMALL
No Charge or Current Charge


@<TRIPOS>ATOM
      1 C1           0.6440    -0.9240     0.0180 c3         1 0A5       0.122600
      2 C2          -3.1360     0.1270     0.0540 c          1 0A5       0.720000
      3 O1          -3.4720     0.8210     1.0010 o          1 0A5      -0.736500
      4 C3          -1.9230    -0.8030     0.2310 c3         1 0A5      -0.213400
      5 C4          -0.6190    -0.0530    -0.1350 c3         1 0A5      -0.060400
      6 OXT         -3.6720     0.1720    -1.0420 o          1 0A5      -0.736500
      7 Br1          2.2930     0.0900    -0.4670 br         1 0A5      -0.355000
      8 H            0.7660    -1.2560     1.0570 h1         1 0A5       0.054700
      9 HA           0.5990    -1.7970    -0.6450 h1         1 0A5       0.054700
     10 H2          -1.8150    -1.0980     1.2820 hc         1 0A5       0.017200
     11 H2A         -1.9860    -1.6520    -0.4610 hc         1 0A5       0.017200
     12 H3          -0.5180     0.8350     0.5020 hc         1 0A5       0.058200
     13 H3A         -0.6820     0.3030    -1.1720 hc         1 0A5       0.058200
@<TRIPOS>BOND
     1     1     5 1   
     2     1     7 1   
     3     1     8 1   
     4     1     9 1   
     5     2     3 1   
     6     2     4 1   
     7     2     6 1   
     8     4     5 1   
     9     4    10 1   
    10     4    11 1   
    11     5    12 1   
    12     5    13 1   
@<TRIPOS>SUBSTRUCTURE
     1 0A5         1 TEMP              0 ****  ****    0 ROOT
