@<TRIPOS>MOLECULE
0A6
   20    19     1     0     0
SMALL
abcg2


@<TRIPOS>ATOM
      1 O01         -1.5170    -1.7090     0.8240 o          1 0A6      -0.528000
      2 C02         -1.0960    -0.8050     0.1460 c          1 0A6       0.550100
      3 C03          0.3480    -0.6830    -0.3140 c3         1 0A6       0.141300
      4 O04          0.9950    -1.9210    -0.2300 oh         1 0A6      -0.630000
      5 C05          1.0600     0.4060     0.4820 c3         1 0A6      -0.245400
      6 C06          2.4810     0.7080    -0.0410 c          1 0A6       0.727000
      7 O07          2.6510     0.6430    -1.2730 o          1 0A6      -0.728500
      8 C08         -3.2040     0.2770     0.1430 c3         1 0A6       0.162600
      9 C09         -3.7910     1.5550    -0.4030 c3         1 0A6      -0.093100
     10 O10         -1.8280     0.2180    -0.2650 os         1 0A6      -0.440100
     11 OXT          3.3250     1.0350     0.8150 o          1 0A6      -0.728500
     12 H03          0.3520    -0.3990    -1.3690 h1         1 0A6       0.115700
     13 H04          1.0530    -2.1770     0.6970 ho         1 0A6       0.440000
     14 H051         0.4830     1.3350     0.4300 hc         1 0A6       0.032700
     15 H052         1.0930     0.1300     1.5400 hc         1 0A6       0.032700
     16 H081        -3.2670     0.2540     1.2330 h1         1 0A6       0.037700
     17 H082        -3.7360    -0.5950    -0.2430 h1         1 0A6       0.037700
     18 H091        -3.2870     2.4320     0.0020 hc         1 0A6       0.039367
     19 H092        -3.7340     1.5900    -1.4910 hc         1 0A6       0.039367
     20 H093        -4.8430     1.6140    -0.1230 hc         1 0A6       0.039367
@<TRIPOS>BOND
     1     1     2 2   
     2     2     3 1   
     3     2    10 1   
     4     3     4 1   
     5     3     5 1   
     6     3    12 1   
     7     4    13 1   
     8     5     6 1   
     9     5    14 1   
    10     5    15 1   
    11     6     7 1   
    12     6    11 1   
    13     8     9 1   
    14     8    10 1   
    15     8    16 1   
    16     8    17 1   
    17     9    18 1   
    18     9    19 1   
    19     9    20 1   
@<TRIPOS>SUBSTRUCTURE
     1 0A6         1 TEMP              0 ****  ****    0 ROOT
