@<TRIPOS>MOLECULE
0A6
   20    19     1     0     0
SMALL
No Charge or Current Charge


@<TRIPOS>ATOM
      1 O01         -1.4990    -1.6310     1.0700 o          1 0A6      -0.528000
      2 C02         -1.0700    -0.7580     0.3220 c          1 0A6       0.550100
      3 C03          0.4180    -0.6730    -0.1500 c3         1 0A6       0.141300
      4 O04          1.1060    -1.9370     0.0080 oh         1 0A6      -0.630000
      5 C05          1.2040     0.4420     0.5890 c3         1 0A6      -0.245400
      6 C06          2.4720     0.7980    -0.1920 c          1 0A6       0.727000
      7 O07          2.3690     1.5970    -1.1090 o          1 0A6      -0.728500
      8 C08         -3.2330     0.2870     0.1370 c3         1 0A6       0.162600
      9 C09         -3.8540     1.4950    -0.5830 c3         1 0A6      -0.093100
     10 O10         -1.8400     0.2450    -0.2130 os         1 0A6      -0.440100
     11 OXT          3.5220     0.2610     0.1250 o          1 0A6      -0.728500
     12 H03          0.3640    -0.4020    -1.2150 h1         1 0A6       0.115700
     13 H04          0.7490    -2.3490     0.8260 ho         1 0A6       0.440000
     14 H051         0.5330     1.3090     0.5950 hc         1 0A6       0.032700
     15 H052         1.4410     0.0670     1.5920 hc         1 0A6       0.032700
     16 H081        -3.3610     0.4030     1.2220 h1         1 0A6       0.037700
     17 H082        -3.7450    -0.6310    -0.1800 h1         1 0A6       0.037700
     18 H091        -3.3660     2.4250    -0.2700 hc         1 0A6       0.039367
     19 H092        -3.7500     1.3920    -1.6700 hc         1 0A6       0.039367
     20 H093        -4.9220     1.5700    -0.3450 hc         1 0A6       0.039367
@<TRIPOS>BOND
     1     1     2 2   
     2     2     3 1   
     3     2    10 1   
     4     3     4 1   
     5     3     5 1   
     6     3    12 1   
     7     4    13 1   
     8     5     6 1   
     9     5    14 1   
    10     5    15 1   
    11     6     7 1   
    12     6    11 1   
    13     8     9 1   
    14     8    10 1   
    15     8    16 1   
    16     8    17 1   
    17     9    18 1   
    18     9    19 1   
    19     9    20 1   
@<TRIPOS>SUBSTRUCTURE
     1 0A6         1 TEMP              0 ****  ****    0 ROOT
