@<TRIPOS>MOLECULE
0A7
   19    19     1     0     0
SMALL
bcc


@<TRIPOS>ATOM
      1 O01         -1.8320    -0.8940    -1.3380 o          1 0A7      -0.861800
      2 C02          2.3460    -1.8800     0.0150 ca         1 0A7      -0.170000
      3 C03          1.0230    -1.8670     0.4280 ca         1 0A7      -0.176000
      4 C04          0.2640    -0.6950     0.4800 ca         1 0A7       0.036700
      5 C05          0.8800     0.5120     0.0990 ca         1 0A7      -0.121600
      6 C06          2.2160     0.4840    -0.3050 ca         1 0A7      -0.117000
      7 C07          2.9520    -0.6890    -0.3540 ca         1 0A7      -0.204000
      8 C08          0.1770     1.8690     0.0870 c          1 0A7       0.920200
      9 O09         -1.0350     1.9040     0.3710 o          1 0A7      -0.833300
     10 C10         -1.1550    -0.8140     0.9510 c3         1 0A7      -0.152100
     11 C11         -2.2130    -0.7190    -0.1660 c          1 0A7       0.965600
     12 O12         -3.3900    -0.5380     0.2120 o          1 0A7      -0.861800
     13 OXT          0.8820     2.8560    -0.2130 o          1 0A7      -0.833300
     14 H07          3.9870    -0.6730    -0.6740 ha         1 0A7       0.075000
     15 H101        -1.2750    -1.8010     1.4170 hc         1 0A7       0.020200
     16 H102        -1.3830    -0.0830     1.7230 hc         1 0A7       0.020200
     17 H06          2.6850     1.4170    -0.5880 ha         1 0A7       0.128000
     18 H02          2.8960    -2.8130    -0.0150 ha         1 0A7       0.073000
     19 H03          0.5570    -2.8000     0.7230 ha         1 0A7       0.092000
@<TRIPOS>BOND
     1     1    11 1   
     2     2     3 ar  
     3     2     7 ar  
     4     2    18 1   
     5     3     4 ar  
     6     3    19 1   
     7     4     5 ar  
     8     4    10 1   
     9     5     6 ar  
    10     5     8 1   
    11     6     7 ar  
    12     6    17 1   
    13     7    14 1   
    14     8     9 1   
    15     8    13 1   
    16    10    11 1   
    17    10    15 1   
    18    10    16 1   
    19    11    12 1   
@<TRIPOS>SUBSTRUCTURE
     1 0A7         1 TEMP              0 ****  ****    0 ROOT
