@<TRIPOS>MOLECULE
0A7
   19    19     1     0     0
SMALL
No Charge or Current Charge


@<TRIPOS>ATOM
      1 O01         -2.2140    -2.2060    -0.9050 o          1 0A7      -0.756500
      2 C02          2.3300    -1.7690    -0.1910 ca         1 0A7      -0.152000
      3 C03          0.9770    -1.8530     0.1720 ca         1 0A7      -0.158000
      4 C04          0.2190    -0.6910     0.4360 ca         1 0A7       0.036700
      5 C05          0.8520     0.5790     0.3370 ca         1 0A7      -0.121600
      6 C06          2.2120     0.6490    -0.0350 ca         1 0A7      -0.099000
      7 C07          2.9470    -0.5170    -0.2970 ca         1 0A7      -0.186000
      8 C08          0.1240     1.8690     0.6200 c          1 0A7       0.709600
      9 O09         -0.1380     2.1410     1.7840 o          1 0A7      -0.728000
     10 C10         -1.2580    -0.8640     0.8100 c3         1 0A7      -0.152100
     11 C11         -2.0950    -1.0710    -0.4650 c          1 0A7       0.755000
     12 O12         -2.5260    -0.0830    -1.0430 o          1 0A7      -0.756500
     13 OXT         -0.0340     2.6530    -0.3050 o          1 0A7      -0.728000
     14 H07          3.9940    -0.4480    -0.5800 ha         1 0A7       0.057000
     15 H101        -1.3180    -1.7580     1.4430 hc         1 0A7       0.020200
     16 H102        -1.5970     0.0340     1.3340 hc         1 0A7       0.020200
     17 H06          2.7000     1.6190    -0.1150 ha         1 0A7       0.110000
     18 H02          2.8970    -2.6750    -0.3920 ha         1 0A7       0.055000
     19 H03          0.5100    -2.8320     0.2450 ha         1 0A7       0.074000
@<TRIPOS>BOND
     1     1    11 1   
     2     2     3 ar  
     3     2     7 ar  
     4     2    18 1   
     5     3     4 ar  
     6     3    19 1   
     7     4     5 ar  
     8     4    10 1   
     9     5     6 ar  
    10     5     8 1   
    11     6     7 ar  
    12     6    17 1   
    13     7    14 1   
    14     8     9 1   
    15     8    13 1   
    16    10    11 1   
    17    10    15 1   
    18    10    16 1   
    19    11    12 1   
@<TRIPOS>SUBSTRUCTURE
     1 0A7         1 TEMP              0 ****  ****    0 ROOT
