@<TRIPOS>MOLECULE
0A8
   23    22     1     0     0
SMALL
No Charge or Current Charge


@<TRIPOS>ATOM
      1 N           61.9370    47.8360    17.5040 n8         1 0A8      -1.004200
      2 CA          62.7350    47.2110    16.3730 c3         1 0A8       0.017500
      3 C           62.0830    47.1960    14.9250 c          1 0A8       0.727000
      4 O           62.7310    46.7180    14.0020 o          1 0A8      -0.721000
      5 CB          63.2530    45.7940    16.7490 c3         1 0A8       0.119600
      6 SG          61.8820    44.5570    16.9270 ss         1 0A8      -0.336600
      7 C1          62.8500    43.0950    17.3530 c          1 0A8       0.633700
      8 O1          64.0650    43.0520    17.4650 o          1 0A8      -0.593100
      9 N1          62.0130    42.0260    17.5370 ns         1 0A8      -0.516900
     10 C2          62.4520    40.6690    17.8850 c3         1 0A8       0.098000
     11 C3          63.2180    39.9690    16.7430 c3         1 0A8       0.112600
     12 Cl1         63.6870    38.2700    17.2030 cl         1 0A8      -0.318000
     13 OXT         60.9850    47.7180    14.7610 o          1 0A8      -0.721000
     14 HN1         62.5560    48.0290    18.3010 hn         1 0A8       0.387000
     15 HN2         61.6130    48.7650    17.2090 hn         1 0A8       0.387000
     16 HA          63.6240    47.8480    16.2700 h1         1 0A8       0.008700
     17 HBC1        63.9480    45.4400    15.9770 h1         1 0A8       0.063200
     18 HBC2        63.8070    45.8450    17.6950 h1         1 0A8       0.063200
     19 H1          61.0230    42.2060    17.4180 hn         1 0A8       0.325500
     20 H2C1        63.0940    40.7230    18.7730 h1         1 0A8       0.054200
     21 H2C2        61.5660    40.0730    18.1420 h1         1 0A8       0.054200
     22 H3C1        62.5910    39.9120    15.8440 h1         1 0A8       0.081200
     23 H3C2        64.1380    40.5170    16.5030 h1         1 0A8       0.081200
@<TRIPOS>BOND
     1     1     2 1   
     2     1    14 1   
     3     1    15 1   
     4     2     3 1   
     5     2     5 1   
     6     2    16 1   
     7     3     4 1   
     8     3    13 1   
     9     5     6 1   
    10     5    17 1   
    11     5    18 1   
    12     6     7 1   
    13     7     8 2   
    14     7     9 1   
    15     9    10 1   
    16     9    19 1   
    17    10    11 1   
    18    10    20 1   
    19    10    21 1   
    20    11    12 1   
    21    11    22 1   
    22    11    23 1   
@<TRIPOS>SUBSTRUCTURE
     1 0A8         1 TEMP              0 ****  ****    0 ROOT
