@<TRIPOS>MOLECULE
0A8
   23    22     1     0     0
SMALL
bcc


@<TRIPOS>ATOM
      1 N           61.6730    47.6730    17.0930 n8         1 0A8      -0.893800
      2 CA          62.8280    47.0400    16.4820 c3         1 0A8       0.017500
      3 C           62.4820    46.4400    15.0920 c          1 0A8       0.937600
      4 O           63.2970    45.6170    14.6350 o          1 0A8      -0.826300
      5 CB          63.3930    45.9950    17.4250 c3         1 0A8       0.071700
      6 SG          62.1060    44.7730    17.8200 ss         1 0A8      -0.288700
      7 C1          62.9900    43.2330    17.6180 c          1 0A8       0.700700
      8 O1          64.1740    43.1500    17.3650 o          1 0A8      -0.593100
      9 N1          62.1860    42.1680    17.8030 ns         1 0A8      -0.583900
     10 C2          62.6650    40.8100    17.6980 c3         1 0A8       0.098000
     11 C3          62.6930    40.3440    16.2510 c3         1 0A8       0.036000
     12 CL1         63.2730    38.6440    16.1790 cl         1 0A8      -0.241400
     13 OXT         61.4520    46.8670    14.5380 o          1 0A8      -0.826300
     14 HN1         61.9660    48.3970    17.7360 hn         1 0A8       0.331800
     15 HN2         61.1310    48.1170    16.3640 hn         1 0A8       0.331800
     16 HA          63.6500    47.7550    16.3010 h1         1 0A8       0.008700
     17 HBC1        64.2380    45.4730    16.9820 h1         1 0A8       0.063200
     18 HBC2        63.7230    46.4490    18.3600 h1         1 0A8       0.063200
     19 H1          61.1980    42.3070    17.9470 hn         1 0A8       0.325500
     20 H2C1        63.6600    40.7330    18.1340 h1         1 0A8       0.054200
     21 H2C2        62.0000    40.1720    18.2800 h1         1 0A8       0.054200
     22 H3C1        61.7010    40.3690    15.8050 h1         1 0A8       0.081200
     23 H3C2        63.3720    40.9450    15.6510 h1         1 0A8       0.081200
@<TRIPOS>BOND
     1     1     2 1   
     2     1    14 1   
     3     1    15 1   
     4     2     3 1   
     5     2     5 1   
     6     2    16 1   
     7     3     4 1   
     8     3    13 1   
     9     5     6 1   
    10     5    17 1   
    11     5    18 1   
    12     6     7 1   
    13     7     8 2   
    14     7     9 1   
    15     9    10 1   
    16     9    19 1   
    17    10    11 1   
    18    10    20 1   
    19    10    21 1   
    20    11    12 1   
    21    11    22 1   
    22    11    23 1   
@<TRIPOS>SUBSTRUCTURE
     1 0A8         1 TEMP              0 ****  ****    0 ROOT
