@<TRIPOS>MOLECULE
0A9
   26    26     1     0     0
SMALL
No Charge or Current Charge


@<TRIPOS>ATOM
      1 N            9.8380    34.7130     1.2530 n8         1 0A9      -0.986200
      2 CA           8.9140    33.6830     0.6630 c3         1 0A9       0.114500
      3 C            7.3890    34.0660     0.6450 c          1 0A9       0.585100
      4 CB           9.1490    32.2970     1.3190 c3         1 0A9      -0.029100
      5 CG          10.5770    31.7800     1.1440 ca         1 0A9      -0.091300
      6 CD1         11.0120    31.3160    -0.1130 ca         1 0A9      -0.105000
      7 CD2         11.4680    31.7550     2.2360 ca         1 0A9      -0.105000
      8 CE1         12.3240    30.8380    -0.2780 ca         1 0A9      -0.111000
      9 CE2         12.7800    31.2770     2.0710 ca         1 0A9      -0.111000
     10 CZ          13.2080    30.8180     0.8140 ca         1 0A9      -0.108000
     11 O            6.8030    34.4580    -0.3590 o          1 0A9      -0.496000
     12 CM           5.4060    34.2940     2.0040 c3         1 0A9       0.146900
     13 OXT          6.7990    33.9550     1.8830 os         1 0A9      -0.414100
     14 HN1         10.8020    34.3620     1.1890 hn         1 0A9       0.406000
     15 HN2          9.8440    35.5500     0.6570 hn         1 0A9       0.406000
     16 HA           9.1960    33.5810    -0.3950 h1         1 0A9       0.046700
     17 HBC1         8.8910    32.3520     2.3840 hc         1 0A9       0.067200
     18 HBC2         8.4490    31.5760     0.8790 hc         1 0A9       0.067200
     19 HD1         10.3340    31.3250    -0.9640 ha         1 0A9       0.116000
     20 HD2         11.1460    32.1080     3.2130 ha         1 0A9       0.116000
     21 HE1         12.6550    30.4820    -1.2520 ha         1 0A9       0.113500
     22 HE2         13.4630    31.2610     2.9170 ha         1 0A9       0.113500
     23 HZ          14.2230    30.4480     0.6860 ha         1 0A9       0.113000
     24 HMC1         5.0690    34.1590     3.0390 h1         1 0A9       0.048367
     25 HMC2         5.2320    35.3410     1.7240 h1         1 0A9       0.048367
     26 HMC3         4.7900    33.6540     1.3590 h1         1 0A9       0.048367
@<TRIPOS>BOND
     1     1     2 1   
     2     1    14 1   
     3     1    15 1   
     4     2     3 1   
     5     2     4 1   
     6     2    16 1   
     7     3    11 2   
     8     3    13 1   
     9     4     5 1   
    10     4    17 1   
    11     4    18 1   
    12     5     6 ar  
    13     5     7 ar  
    14     6     8 ar  
    15     6    19 1   
    16     7     9 ar  
    17     7    20 1   
    18     8    10 ar  
    19     8    21 1   
    20     9    10 ar  
    21     9    22 1   
    22    10    23 1   
    23    12    13 1   
    24    12    24 1   
    25    12    25 1   
    26    12    26 1   
@<TRIPOS>SUBSTRUCTURE
     1 0A9         1 TEMP              0 ****  ****    0 ROOT
