@<TRIPOS>MOLECULE
0A9
   26    26     1     0     0
SMALL
bcc


@<TRIPOS>ATOM
      1 N            9.6020    34.3400     1.7100 n8         1 0A9      -0.875800
      2 CA           8.8770    33.5360     0.7510 c3         1 0A9       0.114500
      3 C            7.3810    33.7980     0.7760 c          1 0A9       0.634100
      4 CB           9.0930    32.0380     1.0490 c3         1 0A9      -0.029100
      5 CG          10.5460    31.6590     0.9710 ca         1 0A9      -0.091300
      6 CD1         11.1780    31.5420    -0.2660 ca         1 0A9      -0.123000
      7 CD2         11.2960    31.4470     2.1250 ca         1 0A9      -0.123000
      8 CE1         12.5250    31.2220    -0.3470 ca         1 0A9      -0.129000
      9 CE2         12.6460    31.1230     2.0470 ca         1 0A9      -0.129000
     10 CZ          13.2650    31.0120     0.8110 ca         1 0A9      -0.126000
     11 O            6.6350    33.3770    -0.0730 o          1 0A9      -0.545000
     12 CM           5.5830    34.7760     1.9270 c3         1 0A9       0.123700
     13 OXT          6.9810    34.5060     1.8170 os         1 0A9      -0.390900
     14 HN1         10.5890    34.1250     1.6340 hn         1 0A9       0.350800
     15 HN2          9.5180    35.3220     1.4790 hn         1 0A9       0.350800
     16 HA           9.1830    33.7070    -0.2920 h1         1 0A9       0.046700
     17 HBC1         8.7020    31.8160     2.0450 hc         1 0A9       0.067200
     18 HBC2         8.5170    31.4530     0.3310 hc         1 0A9       0.067200
     19 HD1         10.6090    31.7010    -1.1750 ha         1 0A9       0.134000
     20 HD2         10.8190    31.5330     3.0940 ha         1 0A9       0.134000
     21 HE1         13.0000    31.1330    -1.3170 ha         1 0A9       0.131500
     22 HE2         13.2120    30.9600     2.9550 ha         1 0A9       0.131500
     23 HZ          14.3160    30.7610     0.7480 ha         1 0A9       0.131000
     24 HMC1         5.4620    35.3620     2.8320 h1         1 0A9       0.048367
     25 HMC2         5.2200    35.3470     1.0730 h1         1 0A9       0.048367
     26 HMC3         5.0070    33.8550     2.0120 h1         1 0A9       0.048367
@<TRIPOS>BOND
     1     1     2 1   
     2     1    14 1   
     3     1    15 1   
     4     2     3 1   
     5     2     4 1   
     6     2    16 1   
     7     3    11 2   
     8     3    13 1   
     9     4     5 1   
    10     4    17 1   
    11     4    18 1   
    12     5     6 ar  
    13     5     7 ar  
    14     6     8 ar  
    15     6    19 1   
    16     7     9 ar  
    17     7    20 1   
    18     8    10 ar  
    19     8    21 1   
    20     9    10 ar  
    21     9    22 1   
    22    10    23 1   
    23    12    13 1   
    24    12    24 1   
    25    12    25 1   
    26    12    26 1   
@<TRIPOS>SUBSTRUCTURE
     1 0A9         1 TEMP              0 ****  ****    0 ROOT
