@<TRIPOS>MOLECULE
0AA
   22    21     1     0     0
SMALL
bcc


@<TRIPOS>ATOM
      1 N           -0.8710     1.8110     0.3810 n8         1 0AA      -0.881800
      2 CA          -0.5500     0.3930     0.3670 c3         1 0AA       0.110500
      3 C            0.8570     0.2740    -0.1890 c          1 0AA       0.651100
      4 O            1.1760     0.6790    -1.2800 o          1 0AA      -0.538000
      5 CB          -1.5060    -0.5080    -0.4380 c3         1 0AA      -0.092700
      6 CG1         -1.0730    -1.9710    -0.3790 c3         1 0AA      -0.090100
      7 CG2         -2.9370    -0.3540     0.0630 c3         1 0AA      -0.090100
      8 O1           1.6980    -0.3170     0.6460 os         1 0AA      -0.415900
      9 C1           3.0500    -0.4790     0.2140 c3         1 0AA       0.128700
     10 HN1         -1.1120     2.1260    -0.5520 hn         1 0AA       0.352800
     11 HA2         -1.6870     1.9700     0.9570 hn         1 0AA       0.352800
     12 HB          -0.5470     0.0460     1.4040 h1         1 0AA       0.081700
     13 HA          -1.4720    -0.1770    -1.4830 hc         1 0AA       0.063700
     14 HG11        -0.0840    -2.1370    -0.8100 hc         1 0AA       0.037367
     15 HG12        -1.0510    -2.3320     0.6520 hc         1 0AA       0.037367
     16 HG13        -1.7690    -2.6000    -0.9340 hc         1 0AA       0.037367
     17 HG21        -3.3000     0.6690    -0.0400 hc         1 0AA       0.037367
     18 HG22        -3.6130    -0.9950    -0.5040 hc         1 0AA       0.037367
     19 HG23        -3.0200    -0.6370     1.1160 hc         1 0AA       0.037367
     20 H1C1         3.1110    -1.1140    -0.6700 h1         1 0AA       0.048033
     21 H1C2         3.5180     0.4810    -0.0020 h1         1 0AA       0.048033
     22 H1C3         3.5720    -0.9570     1.0370 h1         1 0AA       0.048033
@<TRIPOS>BOND
     1     1     2 1   
     2     1    10 1   
     3     1    11 1   
     4     2     3 1   
     5     2     5 1   
     6     2    12 1   
     7     3     4 2   
     8     3     8 1   
     9     5     6 1   
    10     5     7 1   
    11     5    13 1   
    12     6    14 1   
    13     6    15 1   
    14     6    16 1   
    15     7    17 1   
    16     7    18 1   
    17     7    19 1   
    18     8     9 1   
    19     9    20 1   
    20     9    21 1   
    21     9    22 1   
@<TRIPOS>SUBSTRUCTURE
     1 0AA         1 TEMP              0 ****  ****    0 ROOT
