@<TRIPOS>MOLECULE
0AA
   22    21     1     0     0
SMALL
No Charge or Current Charge


@<TRIPOS>ATOM
      1 N           -1.0820     1.9370     0.2600 n8         1 0AA      -0.992200
      2 CA          -0.5450     0.5300     0.3070 c3         1 0AA       0.110500
      3 C            0.9340     0.3700    -0.2100 c          1 0AA       0.602100
      4 O            1.3940     0.9830    -1.1680 o          1 0AA      -0.489000
      5 CB          -1.5340    -0.4570    -0.3980 c3         1 0AA      -0.092700
      6 CG1         -1.0030    -1.9140    -0.4320 c3         1 0AA      -0.090100
      7 CG2         -2.9530    -0.4330     0.2310 c3         1 0AA      -0.090100
      8 O1           1.6780    -0.4500     0.6050 os         1 0AA      -0.439100
      9 C1           3.0610    -0.6630     0.2700 c3         1 0AA       0.151900
     10 HN1         -1.0790     2.2640    -0.7150 hn         1 0AA       0.408000
     11 HA2         -2.0780     1.9250     0.5090 hn         1 0AA       0.408000
     12 HB          -0.5100     0.2390     1.3670 h1         1 0AA       0.081700
     13 HA          -1.6340    -0.1360    -1.4430 hc         1 0AA       0.063700
     14 HG11        -0.0770    -1.9900    -1.0150 hc         1 0AA       0.037367
     15 HG12        -0.8060    -2.2820     0.5820 hc         1 0AA       0.037367
     16 HG13        -1.7350    -2.5830    -0.9000 hc         1 0AA       0.037367
     17 HG21        -3.4210     0.5530     0.1350 hc         1 0AA       0.037367
     18 HG22        -3.6110    -1.1530    -0.2710 hc         1 0AA       0.037367
     19 HG23        -2.9130    -0.6960     1.2950 hc         1 0AA       0.037367
     20 H1C1         3.1570    -1.1160    -0.7260 h1         1 0AA       0.048033
     21 H1C2         3.6170     0.2830     0.2780 h1         1 0AA       0.048033
     22 H1C3         3.5300    -1.3390     0.9970 h1         1 0AA       0.048033
@<TRIPOS>BOND
     1     1     2 1   
     2     1    10 1   
     3     1    11 1   
     4     2     3 1   
     5     2     5 1   
     6     2    12 1   
     7     3     4 2   
     8     3     8 1   
     9     5     6 1   
    10     5     7 1   
    11     5    13 1   
    12     6    14 1   
    13     6    15 1   
    14     6    16 1   
    15     7    17 1   
    16     7    18 1   
    17     7    19 1   
    18     8     9 1   
    19     9    20 1   
    20     9    21 1   
    21     9    22 1   
@<TRIPOS>SUBSTRUCTURE
     1 0AA         1 TEMP              0 ****  ****    0 ROOT
