@<TRIPOS>MOLECULE
0AB
   18    18     1     0     0
SMALL
No Charge or Current Charge


@<TRIPOS>ATOM
      1 N           -6.3240    16.4290    22.6720 n8         1 0AB      -0.987200
      2 CA          -5.2000    17.0220    21.8480 c6         1 0AB       0.073500
      3 C           -4.4700    18.2480    22.5260 c          1 0AB       0.620100
      4 O           -4.4080    18.3650    23.7450 o          1 0AB      -0.488000
      5 CB          -5.6410    17.3420    20.3940 c6         1 0AB      -0.011500
      6 CG1         -6.9130    18.2330    20.3020 c3         1 0AB      -0.088100
      7 CG2         -4.5090    18.0560    19.6850 c2         1 0AB      -0.303200
      8 O1          -3.6650    19.0060    21.6990 os         1 0AB      -0.346200
      9 C1          -3.6200    18.8190    20.3380 c2         1 0AB      -0.009900
     10 HN1         -5.9770    16.2500    23.6250 hn         1 0AB       0.414000
     11 HA2         -7.0450    17.1460    22.8230 hn         1 0AB       0.414000
     12 HB          -4.4120    16.2570    21.7790 h1         1 0AB       0.083700
     13 HA          -5.8620    16.3990    19.8730 hc         1 0AB       0.078700
     14 HG11        -6.7790    19.1820    20.8360 hc         1 0AB       0.042367
     15 HG12        -7.1480    18.4720    19.2580 hc         1 0AB       0.042367
     16 HG13        -7.7920    17.7310    20.7220 hc         1 0AB       0.042367
     17 HG2         -4.4470    17.9320    18.6010 ha         1 0AB       0.200000
     18 H1          -2.8080    19.3540    19.8370 h4         1 0AB       0.223000
@<TRIPOS>BOND
     1     1     2 1   
     2     1    10 1   
     3     1    11 1   
     4     2     3 1   
     5     2     5 1   
     6     2    12 1   
     7     3     4 2   
     8     3     8 1   
     9     5     6 1   
    10     5     7 1   
    11     5    13 1   
    12     6    14 1   
    13     6    15 1   
    14     6    16 1   
    15     7     9 2   
    16     7    17 1   
    17     8     9 1   
    18     9    18 1   
@<TRIPOS>SUBSTRUCTURE
     1 0AB         1 TEMP              0 ****  ****    0 ROOT
