@<TRIPOS>MOLECULE
0AB
   18    18     1     0     0
SMALL
abcg2


@<TRIPOS>ATOM
      1 N           -6.2470    16.4490    22.6200 n8         1 0AB      -0.987200
      2 CA          -5.2020    17.0430    21.8290 c6         1 0AB       0.073500
      3 C           -4.5380    18.2520    22.4790 c          1 0AB       0.620100
      4 O           -4.6810    18.5860    23.6200 o          1 0AB      -0.488000
      5 CB          -5.6620    17.3740    20.4030 c6         1 0AB      -0.011500
      6 CG1         -6.9070    18.2600    20.3470 c3         1 0AB      -0.088100
      7 CG2         -4.5130    18.0180    19.6900 c2         1 0AB      -0.303200
      8 O1          -3.6850    18.9590    21.7110 os         1 0AB      -0.346200
      9 C1          -3.6170    18.7290    20.3550 c2         1 0AB      -0.009900
     10 HN1         -5.8700    16.0880    23.4860 hn         1 0AB       0.414000
     11 HA2         -6.9390    17.1400    22.8820 hn         1 0AB       0.414000
     12 HB          -4.3970    16.3030    21.7250 h1         1 0AB       0.083700
     13 HA          -5.8970    16.4230    19.9210 hc         1 0AB       0.078700
     14 HG11        -6.7500    19.2140    20.8540 hc         1 0AB       0.042367
     15 HG12        -7.1660    18.4790    19.3110 hc         1 0AB       0.042367
     16 HG13        -7.7670    17.7680    20.8020 hc         1 0AB       0.042367
     17 HG2         -4.4120    17.9280    18.6170 ha         1 0AB       0.200000
     18 H1          -2.7680    19.2300    19.9120 h4         1 0AB       0.223000
@<TRIPOS>BOND
     1     1     2 1   
     2     1    10 1   
     3     1    11 1   
     4     2     3 1   
     5     2     5 1   
     6     2    12 1   
     7     3     4 2   
     8     3     8 1   
     9     5     6 1   
    10     5     7 1   
    11     5    13 1   
    12     6    14 1   
    13     6    15 1   
    14     6    16 1   
    15     7     9 2   
    16     7    17 1   
    17     8     9 1   
    18     9    18 1   
@<TRIPOS>SUBSTRUCTURE
     1 0AB         1 TEMP              0 ****  ****    0 ROOT
