@<TRIPOS>MOLECULE
0AC
   32    32     1     0     0
SMALL
No Charge or Current Charge


@<TRIPOS>ATOM
      1 N           -0.4710     0.3340     1.5210 n8         1 0AC      -0.990200
      2 CA          -0.2750     0.2300     0.0460 c3         1 0AC       0.132500
      3 CB          -1.4520     0.9340    -0.6750 c3         1 0AC      -0.075100
      4 CG          -2.8140     0.3340    -0.3360 ca         1 0AC      -0.071300
      5 CD1         -3.7260     1.0400     0.4750 ca         1 0AC      -0.112500
      6 CD2         -3.1740    -0.9330    -0.8360 ca         1 0AC      -0.112500
      7 CE1         -4.9790     0.4830     0.7850 ca         1 0AC      -0.111500
      8 CE2         -4.4280    -1.4900    -0.5260 ca         1 0AC      -0.111500
      9 CZ          -5.3300    -0.7810     0.2840 ca         1 0AC      -0.122000
     10 C2           1.1140     0.8200    -0.3620 c3         1 0AC       0.173300
     11 O            1.2890     1.9800     0.4520 oh         1 0AC      -0.676000
     12 C            4.7400    -0.7450    -0.3860 c          1 0AC       0.716000
     13 O1           4.9130    -1.5710    -1.2700 o          1 0AC      -0.743000
     14 OXT          5.3330    -0.7640     0.6810 o          1 0AC      -0.743000
     15 HN1         -1.4630     0.1540     1.7210 hn         1 0AC       0.387000
     16 HN2          0.0080    -0.4500     1.9800 hn         1 0AC       0.387000
     17 HA          -0.3080    -0.8320    -0.2370 h1         1 0AC       0.062700
     18 HBC1        -1.4360     2.0050    -0.4370 hc         1 0AC       0.056700
     19 HBC2        -1.2900     0.8670    -1.7580 hc         1 0AC       0.056700
     20 H2           1.1020     1.0810    -1.4300 h1         1 0AC       0.053700
     21 HD1         -3.4630     2.0200     0.8680 ha         1 0AC       0.112500
     22 HD2         -2.4820    -1.4880    -1.4660 ha         1 0AC       0.112500
     23 HE1         -5.6780     1.0330     1.4120 ha         1 0AC       0.106000
     24 HE2         -4.6990    -2.4690    -0.9160 ha         1 0AC       0.106000
     25 HZ          -6.3000    -1.2120     0.5240 ha         1 0AC       0.104000
     26 H1C1         2.3470    -0.3970     0.9640 hc         1 0AC       0.051700
     27 H1C2         2.0570    -1.1120    -0.6160 hc         1 0AC       0.051700
     28 HA11         3.5450     0.5410    -1.6760 hc         1 0AC       0.020700
     29 HA12         3.9020     1.2290    -0.0110 hc         1 0AC       0.020700
     30 H            0.6610     1.7680     1.1910 ho         1 0AC       0.443000
     31 C1           2.2850    -0.1660    -0.1070 c3         1 0AC      -0.081400
     32 CA1          3.6680     0.3370    -0.6050 c3         1 0AC      -0.204400
@<TRIPOS>BOND
     1     1     2 1   
     2     1    15 1   
     3     1    16 1   
     4     2     3 1   
     5     2    10 1   
     6     2    17 1   
     7     3     4 1   
     8     3    18 1   
     9     3    19 1   
    10     4     5 ar  
    11     4     6 ar  
    12     5     7 ar  
    13     5    21 1   
    14     6     8 ar  
    15     6    22 1   
    16     7     9 ar  
    17     7    23 1   
    18     8     9 ar  
    19     8    24 1   
    20     9    25 1   
    21    10    11 1   
    22    10    20 1   
    23    10    31 1   
    24    11    30 1   
    25    12    13 1   
    26    12    14 1   
    27    12    32 1   
    28    26    31 1   
    29    27    31 1   
    30    28    32 1   
    31    29    32 1   
    32    31    32 1   
@<TRIPOS>SUBSTRUCTURE
     1 0AC         1 TEMP              0 ****  ****    0 ROOT
