@<TRIPOS>MOLECULE
0AC
   32    32     1     0     0
SMALL
bcc


@<TRIPOS>ATOM
      1 N           -0.4300     0.0860     1.4880 n8         1 0AC      -0.879800
      2 CA          -0.3170     0.1550     0.0390 c3         1 0AC       0.132500
      3 CB          -1.4640     0.9220    -0.6430 c3         1 0AC      -0.075100
      4 CG          -2.8070     0.3140    -0.3610 ca         1 0AC      -0.071300
      5 CD1         -3.6230     0.7980     0.6590 ca         1 0AC      -0.130500
      6 CD2         -3.2480    -0.7890    -1.0920 ca         1 0AC      -0.130500
      7 CE1         -4.8470     0.2020     0.9400 ca         1 0AC      -0.129500
      8 CE2         -4.4680    -1.3890    -0.8160 ca         1 0AC      -0.129500
      9 CZ          -5.2730    -0.8950     0.2030 ca         1 0AC      -0.140000
     10 C2           1.0440     0.7460    -0.3550 c3         1 0AC       0.150100
     11 O            1.2180     2.0330     0.2130 oh         1 0AC      -0.613800
     12 C            4.7400    -0.6290    -0.2490 c          1 0AC       0.926600
     13 O1           4.4910    -1.8010     0.0950 o          1 0AC      -0.848300
     14 OXT          5.8750    -0.1430    -0.4420 o          1 0AC      -0.848300
     15 HN1         -0.7140     0.9850     1.8620 hn         1 0AC       0.331800
     16 HN2         -1.1620    -0.5610     1.7500 hn         1 0AC       0.331800
     17 HA          -0.3370    -0.8740    -0.3350 h1         1 0AC       0.062700
     18 HBC1        -1.4440     1.9630    -0.3080 hc         1 0AC       0.056700
     19 HBC2        -1.2880     0.9350    -1.7230 hc         1 0AC       0.056700
     20 H2           1.0360     0.9050    -1.4400 h1         1 0AC       0.053700
     21 HD1         -3.3060     1.6610     1.2330 ha         1 0AC       0.130500
     22 HD2         -2.6280    -1.1800    -1.8900 ha         1 0AC       0.130500
     23 HE1         -5.4680     0.5980     1.7340 ha         1 0AC       0.124000
     24 HE2         -4.7940    -2.2410    -1.3990 ha         1 0AC       0.124000
     25 HZ          -6.2280    -1.3590     0.4190 ha         1 0AC       0.122000
     26 H1C1         2.2040    -0.3860     1.0550 hc         1 0AC       0.051700
     27 H1C2         1.9980    -1.1560    -0.4960 hc         1 0AC       0.051700
     28 HA11         3.5140     0.5560    -1.5500 hc         1 0AC       0.020700
     29 HA12         3.7840     1.2770     0.0090 hc         1 0AC       0.020700
     30 H            1.3860     1.9150     1.1550 ho         1 0AC       0.404000
     31 C1           2.1980    -0.1920    -0.0210 c3         1 0AC      -0.081400
     32 CA1          3.5530     0.3250    -0.4770 c3         1 0AC      -0.204400
@<TRIPOS>BOND
     1     1     2 1   
     2     1    15 1   
     3     1    16 1   
     4     2     3 1   
     5     2    10 1   
     6     2    17 1   
     7     3     4 1   
     8     3    18 1   
     9     3    19 1   
    10     4     5 ar  
    11     4     6 ar  
    12     5     7 ar  
    13     5    21 1   
    14     6     8 ar  
    15     6    22 1   
    16     7     9 ar  
    17     7    23 1   
    18     8     9 ar  
    19     8    24 1   
    20     9    25 1   
    21    10    11 1   
    22    10    20 1   
    23    10    31 1   
    24    11    30 1   
    25    12    13 1   
    26    12    14 1   
    27    12    32 1   
    28    26    31 1   
    29    27    31 1   
    30    28    32 1   
    31    29    32 1   
    32    31    32 1   
@<TRIPOS>SUBSTRUCTURE
     1 0AC         1 TEMP              0 ****  ****    0 ROOT
