@<TRIPOS>MOLECULE
0AE
   91    97     1     0     0
SMALL
bcc


@<TRIPOS>ATOM
      1 C10         14.1760   -21.7820   -13.9870 ca         1 0AE      -0.075000
      2 N12         12.9600   -20.2480   -12.5620 nu         1 0AE      -0.771600
      3 C13         11.9470   -19.8370   -11.6230 c3         1 0AE       0.192800
      4 C15         10.1050   -19.4960   -13.3510 c6         1 0AE      -0.103400
      5 C17          9.9370   -17.2380   -14.3900 c6         1 0AE       0.211800
      6 C20         10.0280   -15.6940   -12.4780 ca         1 0AE       0.739200
      7 C22         10.1720   -14.2940   -10.7020 ca         1 0AE       0.716900
      8 C24          8.3190   -14.1090   -11.9660 ca         1 0AE       0.730200
      9 C26          6.1960   -13.8900   -13.1950 c3         1 0AE       0.279100
     10 C28          5.3280   -15.7970   -11.7700 ca         1 0AE      -0.117000
     11 C02         21.1820   -22.8510   -16.2840 c3         1 0AE      -0.074700
     12 C03         20.8050   -21.6640   -17.1670 c3         1 0AE      -0.099100
     13 C04         20.0240   -23.8020   -16.0750 cy         1 0AE       0.173500
     14 C06         17.6300   -22.8390   -16.3630 c3         1 0AE       0.194100
     15 C07         16.4210   -22.4770   -15.5560 ca         1 0AE      -0.165300
     16 C08         16.3270   -21.2020   -14.9590 ca         1 0AE      -0.158000
     17 C09         15.2380   -20.8710   -14.1990 ca         1 0AE      -0.077000
     18 C11         13.0220   -21.4600   -13.1890 ca         1 0AE       0.221600
     19 C14         10.8890   -18.8740   -12.1920 c6         1 0AE       0.110800
     20 C16          9.1630   -18.4920   -14.0100 c6         1 0AE      -0.103400
     21 C18         11.5690   -17.5790   -12.6570 c6         1 0AE       0.230800
     22 C27          5.6150   -15.2790   -13.0300 ca         1 0AE      -0.116300
     23 C29          4.7840   -17.0670   -11.6370 ca         1 0AE      -0.128000
     24 C30          4.5170   -17.8370   -12.7630 ca         1 0AE      -0.127000
     25 C31          4.8010   -17.3270   -14.0230 ca         1 0AE      -0.128000
     26 C32          5.3490   -16.0570   -14.1520 ca         1 0AE      -0.117000
     27 C33          8.7930   -15.1220   -12.7980 ca         1 0AE      -0.502600
     28 C35         12.0070   -22.3990   -13.1010 ca         1 0AE      -0.219000
     29 C36         12.1070   -23.6480   -13.7330 ca         1 0AE      -0.045000
     30 C37         13.2070   -23.9910   -14.4690 ca         1 0AE      -0.185000
     31 C38         14.2570   -23.0560   -14.6100 ca         1 0AE      -0.001000
     32 C39         15.4000   -23.3720   -15.3810 ca         1 0AE      -0.078000
     33 C40         18.6100   -24.4390   -14.6210 cy         1 0AE       0.148800
     34 C41         20.0540   -24.8330   -14.9370 cy         1 0AE      -0.118000
     35 C42         21.0450   -24.7620   -13.7610 cy         1 0AE      -0.073900
     36 C43         20.9470   -26.2960   -13.6580 cy         1 0AE      -0.081400
     37 C44         20.3920   -26.3170   -15.0960 cy         1 0AE      -0.073900
     38 N05         18.7600   -23.2070   -15.4700 nl         1 0AE      -0.722400
     39 N19         10.6030   -16.6660   -13.2340 nh         1 0AE      -0.760300
     40 N21         10.7180   -15.2650   -11.4040 nb         1 0AE      -0.810000
     41 N23          9.0230   -13.6800   -10.9020 nb         1 0AE      -0.810000
     42 N25          7.1300   -13.5040   -12.1730 nu         1 0AE      -0.879900
     43 O34         10.0190   -18.5040   -11.1400 oh         1 0AE      -0.570800
     44 H1          11.4410   -20.7090   -11.1990 h1         1 0AE       0.059700
     45 H2          12.4440   -19.3370   -10.7870 h1         1 0AE       0.059700
     46 H3           9.5490   -20.3680   -12.9910 hc         1 0AE       0.046200
     47 H4          10.8080   -19.8710   -14.1000 hc         1 0AE       0.046200
     48 H5          10.7140   -17.4960   -15.1170 h1         1 0AE       0.056200
     49 H6           9.3040   -16.4990   -14.8780 h1         1 0AE       0.056200
     50 H7          10.7450   -13.9540    -9.8430 h5         1 0AE       0.040100
     51 H8           6.6600   -13.8120   -14.1840 h1         1 0AE       0.057700
     52 H9           5.3910   -13.1550   -13.1830 h1         1 0AE       0.057700
     53 H11         22.6490   -24.4810   -16.2970 hc         1 0AE       0.053700
     54 H12         22.0710   -24.0020   -17.8920 hc         1 0AE       0.053700
     55 H13         23.2090   -22.9780   -17.0170 hc         1 0AE       0.053700
     56 H14         21.4950   -22.4700   -15.3060 hc         1 0AE       0.067700
     57 H15         20.0540   -21.0200   -16.7060 hc         1 0AE       0.053700
     58 H16         21.6820   -21.0440   -17.3520 hc         1 0AE       0.053700
     59 H17         20.4230   -21.9960   -18.1340 hc         1 0AE       0.053700
     60 H18         19.7250   -24.2670   -17.0200 hx         1 0AE       0.102700
     61 H19         17.9640   -22.0060   -16.9810 hx         1 0AE       0.095200
     62 H20         17.4430   -23.6960   -17.0090 hx         1 0AE       0.095200
     63 H21         17.1160   -20.4760   -15.1130 ha         1 0AE       0.129000
     64 H22         15.2080   -19.8720   -13.7850 ha         1 0AE       0.139000
     65 H23          8.3390   -18.2320   -13.3410 hc         1 0AE       0.059200
     66 H24          8.7150   -18.9320   -14.9040 hc         1 0AE       0.059200
     67 H25         12.3170   -17.8170   -13.4180 h1         1 0AE       0.070700
     68 H26         12.0820   -17.1000   -11.8260 h1         1 0AE       0.070700
     69 H27          4.5690   -17.4580   -10.6510 ha         1 0AE       0.132500
     70 H28          4.0960   -18.8280   -12.6580 ha         1 0AE       0.131000
     71 H29          4.6040   -17.9200   -14.9070 ha         1 0AE       0.132500
     72 H30          5.5820   -15.6710   -15.1380 ha         1 0AE       0.132000
     73 H31          8.2000   -15.4760   -13.6240 ha         1 0AE       0.149000
     74 H32         11.1110   -22.1840   -12.5380 ha         1 0AE       0.146000
     75 H33         11.2880   -24.3470   -13.6240 ha         1 0AE       0.144000
     76 H34         13.2840   -24.9570   -14.9500 ha         1 0AE       0.140000
     77 H36         15.4500   -24.3490   -15.8490 ha         1 0AE       0.132000
     78 H37         18.3370   -24.2140   -13.5930 hx         1 0AE       0.106700
     79 H38         17.8690   -25.0950   -15.0760 hx         1 0AE       0.106700
     80 H39         22.0380   -24.4460   -14.0820 hc         1 0AE       0.072700
     81 H40         20.7510   -24.1640   -12.8970 hc         1 0AE       0.072700
     82 H41         20.1990   -26.6090   -12.9290 hc         1 0AE       0.073700
     83 H42         21.8690   -26.8430   -13.4680 hc         1 0AE       0.073700
     84 H43         19.5650   -26.9900   -15.3240 hc         1 0AE       0.072700
     85 H44         21.1800   -26.4680   -15.8350 hc         1 0AE       0.072700
     86 H46          6.8370   -12.8430   -11.4730 hn         1 0AE       0.452800
     87 H47          9.4310   -19.2440   -10.9520 ho         1 0AE       0.403000
     88 H48         13.8080   -19.7140   -12.5170 hn         1 0AE       0.428800
     89 H35         18.9980   -22.4060   -14.8810 hn         1 0AE       0.445800
     90 H10          5.5380   -15.2100   -10.8840 ha         1 0AE       0.132000
     91 C01         22.3420   -23.6280   -16.9020 c3         1 0AE      -0.099100
@<TRIPOS>BOND
     1     1    17 ar  
     2     1    18 ar  
     3     1    31 ar  
     4     2     3 1   
     5     2    18 1   
     6     2    88 1   
     7     3    19 1   
     8     3    44 1   
     9     3    45 1   
    10     4    19 1   
    11     4    20 1   
    12     4    46 1   
    13     4    47 1   
    14     5    20 1   
    15     5    39 1   
    16     5    48 1   
    17     5    49 1   
    18     6    27 ar  
    19     6    39 1   
    20     6    40 ar  
    21     7    40 ar  
    22     7    41 ar  
    23     7    50 1   
    24     8    27 ar  
    25     8    41 ar  
    26     8    42 1   
    27     9    22 1   
    28     9    42 1   
    29     9    51 1   
    30     9    52 1   
    31    10    22 ar  
    32    10    23 ar  
    33    10    90 1   
    34    11    12 1   
    35    11    13 1   
    36    11    56 1   
    37    11    91 1   
    38    12    57 1   
    39    12    58 1   
    40    12    59 1   
    41    13    34 1   
    42    13    38 1   
    43    13    60 1   
    44    14    15 1   
    45    14    38 1   
    46    14    61 1   
    47    14    62 1   
    48    15    16 ar  
    49    15    32 ar  
    50    16    17 ar  
    51    16    63 1   
    52    17    64 1   
    53    18    28 ar  
    54    19    21 1   
    55    19    43 1   
    56    20    65 1   
    57    20    66 1   
    58    21    39 1   
    59    21    67 1   
    60    21    68 1   
    61    22    26 ar  
    62    23    24 ar  
    63    23    69 1   
    64    24    25 ar  
    65    24    70 1   
    66    25    26 ar  
    67    25    71 1   
    68    26    72 1   
    69    27    73 1   
    70    28    29 ar  
    71    28    74 1   
    72    29    30 ar  
    73    29    75 1   
    74    30    31 ar  
    75    30    76 1   
    76    31    32 ar  
    77    32    77 1   
    78    33    34 1   
    79    33    38 1   
    80    33    78 1   
    81    33    79 1   
    82    34    35 1   
    83    34    37 1   
    84    35    36 1   
    85    35    80 1   
    86    35    81 1   
    87    36    37 1   
    88    36    82 1   
    89    36    83 1   
    90    37    84 1   
    91    37    85 1   
    92    38    89 1   
    93    42    86 1   
    94    43    87 1   
    95    53    91 1   
    96    54    91 1   
    97    55    91 1   
@<TRIPOS>SUBSTRUCTURE
     1 0AE         1 TEMP              0 ****  ****    0 ROOT
