@<TRIPOS>MOLECULE
0AE
   91    97     1     0     0
SMALL
No Charge or Current Charge


@<TRIPOS>ATOM
      1 C10         13.5100   -22.1900   -12.9450 ca         1 0AE      -0.075000
      2 N12         12.0920   -21.2820   -11.1470 nu         1 0AE      -0.965200
      3 C13         10.8070   -20.5780   -10.8930 c3         1 0AE       0.192800
      4 C15          9.8140   -20.2920   -13.2950 c6         1 0AE      -0.103400
      5 C17         10.5370   -18.2740   -14.7090 c6         1 0AE       0.211800
      6 C20         10.7150   -16.2780   -13.1360 ca         1 0AE       0.410900
      7 C22         11.2290   -14.3900   -11.9420 ca         1 0AE       0.190900
      8 C24          9.3500   -14.3180   -13.2310 ca         1 0AE       0.401900
      9 C26          7.0250   -14.1170   -14.2760 c3         1 0AE       0.279100
     10 C28          5.8730   -14.7620   -12.0930 ca         1 0AE      -0.099000
     11 C02         21.1080   -22.0450   -15.9040 c3         1 0AE      -0.074700
     12 C03         20.7150   -20.5700   -16.1410 c3         1 0AE      -0.099100
     13 C04         19.9070   -22.9820   -16.1400 cy         1 0AE       0.145300
     14 C06         17.5500   -22.1270   -15.7960 c3         1 0AE       0.165900
     15 C07         15.8210   -22.1470   -14.5840 ca         1 0AE      -0.165300
     16 C08         15.6380   -21.1670   -13.5980 ca         1 0AE      -0.140000
     17 C09         14.4930   -21.1830   -12.7840 ca         1 0AE      -0.059000
     18 C11         12.3370   -22.2320   -12.1460 ca         1 0AE       0.360000
     19 C14         10.3460   -19.5710   -12.0160 c6         1 0AE       0.134000
     20 C16          9.3950   -19.2760   -14.3980 c6         1 0AE      -0.103400
     21 C18         11.4990   -18.5960   -12.4290 c6         1 0AE       0.230800
     22 C27          6.3380   -15.1380   -13.3700 ca         1 0AE      -0.116300
     23 C29          5.2520   -15.7060   -11.2550 ca         1 0AE      -0.110000
     24 C30          5.0900   -17.0320   -11.6890 ca         1 0AE      -0.109000
     25 C31          5.5460   -17.4140   -12.9610 ca         1 0AE      -0.110000
     26 C32          6.1650   -16.4710   -13.8000 ca         1 0AE      -0.099000
     27 C33          9.5890   -15.6270   -13.6530 ca         1 0AE      -0.354000
     28 C35         11.3920   -23.2520   -12.3510 ca         1 0AE      -0.201000
     29 C36         11.5890   -24.2240   -13.3420 ca         1 0AE      -0.027000
     30 C37         12.7420   -24.1840   -14.1380 ca         1 0AE      -0.167000
     31 C38         13.7020   -23.1740   -13.9450 ca         1 0AE      -0.001000
     32 C39         14.8530   -23.1490   -14.7550 ca         1 0AE      -0.060000
     33 C40         18.4370   -24.3710   -15.0200 cy         1 0AE       0.120600
     34 C41         19.8610   -24.4260   -15.5970 cy         1 0AE      -0.118000
     35 C42         20.8820   -24.8690   -14.5440 cy         1 0AE      -0.073900
     36 C43         20.7110   -26.2680   -15.3120 cy         1 0AE      -0.081400
     37 C44         20.0610   -25.5560   -16.5960 cy         1 0AE      -0.073900
     38 N05         18.7110   -22.8330   -15.1520 nl         1 0AE      -0.693000
     39 N19         11.0080   -17.6210   -13.4570 nh         1 0AE      -0.760300
     40 N21         11.5370   -15.6600   -12.2690 nb         1 0AE      -0.284000
     41 N23         10.1700   -13.6840   -12.3830 nb         1 0AE      -0.284000
     42 N25          8.2530   -13.5910   -13.6540 nu         1 0AE      -0.935100
     43 O34          9.2660   -18.7870   -11.4820 oh         1 0AE      -0.633000
     44 H1          10.0010   -21.3050   -10.7250 h1         1 0AE       0.059700
     45 H2          10.9070   -20.0020    -9.9620 h1         1 0AE       0.059700
     46 H3           8.9660   -20.9430   -13.0430 hc         1 0AE       0.046200
     47 H4          10.5930   -20.9440   -13.7110 hc         1 0AE       0.046200
     48 H5          11.3730   -18.8160   -15.1760 h1         1 0AE       0.056200
     49 H6          10.2000   -17.5350   -15.4500 h1         1 0AE       0.056200
     50 H7          11.8990   -13.8870   -11.2470 h5         1 0AE       0.040100
     51 H8           7.2650   -14.5820   -15.2430 h1         1 0AE       0.057700
     52 H9           6.3240   -13.2950   -14.4790 h1         1 0AE       0.057700
     53 H11         22.6120   -23.4780   -16.6200 hc         1 0AE       0.053700
     54 H12         22.0550   -22.3370   -17.8570 hc         1 0AE       0.053700
     55 H13         23.1730   -21.7970   -16.5870 hc         1 0AE       0.053700
     56 H14         21.4240   -22.1270   -14.8570 hc         1 0AE       0.067700
     57 H15         19.9200   -20.2620   -15.4510 hc         1 0AE       0.053700
     58 H16         21.5740   -19.9070   -15.9770 hc         1 0AE       0.053700
     59 H17         20.3560   -20.4190   -17.1670 hc         1 0AE       0.053700
     60 H18         19.5690   -22.8960   -17.1770 hx         1 0AE       0.102700
     61 H19         17.8460   -21.0970   -16.0110 hx         1 0AE       0.095200
     62 H20         17.3420   -22.6140   -16.7520 hx         1 0AE       0.095200
     63 H21         16.3860   -20.3890   -13.4620 ha         1 0AE       0.111000
     64 H22         14.3850   -20.4050   -12.0340 ha         1 0AE       0.121000
     65 H23          8.4980   -18.7260   -14.0850 hc         1 0AE       0.059200
     66 H24          9.1200   -19.8130   -15.3150 hc         1 0AE       0.059200
     67 H25         12.3390   -19.1720   -12.8430 h1         1 0AE       0.070700
     68 H26         11.8820   -18.0880   -11.5330 h1         1 0AE       0.070700
     69 H27          4.8980   -15.4090   -10.2700 ha         1 0AE       0.114500
     70 H28          4.6120   -17.7630   -11.0400 ha         1 0AE       0.113000
     71 H29          5.4210   -18.4410   -13.2980 ha         1 0AE       0.114500
     72 H30          6.5130   -16.7790   -14.7830 ha         1 0AE       0.114000
     73 H31          8.9140   -16.1230   -14.3360 ha         1 0AE       0.131000
     74 H32         10.5000   -23.2970   -11.7350 ha         1 0AE       0.128000
     75 H33         10.8500   -25.0090   -13.4920 ha         1 0AE       0.126000
     76 H34         12.8890   -24.9410   -14.9060 ha         1 0AE       0.122000
     77 H36         14.9980   -23.9070   -15.5210 ha         1 0AE       0.114000
     78 H37         18.2900   -24.7180   -13.9940 hx         1 0AE       0.106700
     79 H38         17.6380   -24.7240   -15.6780 hx         1 0AE       0.106700
     80 H39         21.8860   -24.4430   -14.6260 hc         1 0AE       0.072700
     81 H40         20.5610   -24.8450   -13.4970 hc         1 0AE       0.072700
     82 H41         20.0310   -26.9640   -14.8070 hc         1 0AE       0.073700
     83 H42         21.6450   -26.8080   -15.5060 hc         1 0AE       0.073700
     84 H43         19.1600   -26.0220   -17.0120 hc         1 0AE       0.072700
     85 H44         20.7700   -25.3390   -17.4020 hc         1 0AE       0.072700
     86 H46          8.2000   -12.6490   -13.2660 hn         1 0AE       0.508000
     87 H47          9.2180   -18.0110   -12.0820 ho         1 0AE       0.442000
     88 H48         12.9290   -20.8340   -10.7720 hn         1 0AE       0.484000
     89 H35         18.9120   -22.3240   -14.2470 hn         1 0AE       0.501000
     90 H10          5.9980   -13.7380   -11.7470 ha         1 0AE       0.114000
     91 C01         22.3090   -22.4390   -16.7950 c3         1 0AE      -0.099100
@<TRIPOS>BOND
     1     1    17 ar  
     2     1    18 ar  
     3     1    31 ar  
     4     2     3 1   
     5     2    18 1   
     6     2    88 1   
     7     3    19 1   
     8     3    44 1   
     9     3    45 1   
    10     4    19 1   
    11     4    20 1   
    12     4    46 1   
    13     4    47 1   
    14     5    20 1   
    15     5    39 1   
    16     5    48 1   
    17     5    49 1   
    18     6    27 ar  
    19     6    39 1   
    20     6    40 ar  
    21     7    40 ar  
    22     7    41 ar  
    23     7    50 1   
    24     8    27 ar  
    25     8    41 ar  
    26     8    42 1   
    27     9    22 1   
    28     9    42 1   
    29     9    51 1   
    30     9    52 1   
    31    10    22 ar  
    32    10    23 ar  
    33    10    90 1   
    34    11    12 1   
    35    11    13 1   
    36    11    56 1   
    37    11    91 1   
    38    12    57 1   
    39    12    58 1   
    40    12    59 1   
    41    13    34 1   
    42    13    38 1   
    43    13    60 1   
    44    14    15 1   
    45    14    38 1   
    46    14    61 1   
    47    14    62 1   
    48    15    16 ar  
    49    15    32 ar  
    50    16    17 ar  
    51    16    63 1   
    52    17    64 1   
    53    18    28 ar  
    54    19    21 1   
    55    19    43 1   
    56    20    65 1   
    57    20    66 1   
    58    21    39 1   
    59    21    67 1   
    60    21    68 1   
    61    22    26 ar  
    62    23    24 ar  
    63    23    69 1   
    64    24    25 ar  
    65    24    70 1   
    66    25    26 ar  
    67    25    71 1   
    68    26    72 1   
    69    27    73 1   
    70    28    29 ar  
    71    28    74 1   
    72    29    30 ar  
    73    29    75 1   
    74    30    31 ar  
    75    30    76 1   
    76    31    32 ar  
    77    32    77 1   
    78    33    34 1   
    79    33    38 1   
    80    33    78 1   
    81    33    79 1   
    82    34    35 1   
    83    34    37 1   
    84    35    36 1   
    85    35    80 1   
    86    35    81 1   
    87    36    37 1   
    88    36    82 1   
    89    36    83 1   
    90    37    84 1   
    91    37    85 1   
    92    38    89 1   
    93    42    86 1   
    94    43    87 1   
    95    53    91 1   
    96    54    91 1   
    97    55    91 1   
@<TRIPOS>SUBSTRUCTURE
     1 0AE         1 TEMP              0 ****  ****    0 ROOT
