@<TRIPOS>MOLECULE
0AF
   27    28     1     0     0
SMALL
bcc


@<TRIPOS>ATOM
      1 N           13.4640    68.1570    92.9000 n8         1 0AF      -0.888800
      2 CA          12.9540    69.4820    93.2200 c3         1 0AF       0.015500
      3 C           13.2220    70.5870    92.1630 c          1 0AF       0.903600
      4 O           13.9340    70.2910    91.1840 o          1 0AF      -0.843800
      5 CB          13.4800    69.9330    94.5920 c3         1 0AF       0.018800
      6 CG          14.9620    70.1320    94.6430 cc         1 0AF      -0.105400
      7 CD1         15.6430    71.2890    94.3840 cd         1 0AF      -0.089100
      8 CD2         15.9600    69.1490    94.9490 ca         1 0AF      -0.055800
      9 NE1         16.9890    71.0880    94.5010 na         1 0AF      -0.187400
     10 CE2         17.2170    69.7840    94.8500 ca         1 0AF      -0.123200
     11 CE3         15.8900    67.7970    95.3180 ca         1 0AF      -0.090000
     12 CZ2         18.4110    69.0910    95.0920 ca         1 0AF       0.102100
     13 O1          19.6400    69.6560    95.0130 oh         1 0AF      -0.517100
     14 CZ3         17.0660    67.1270    95.5760 ca         1 0AF      -0.154000
     15 CH2         18.3140    67.7610    95.4580 ca         1 0AF      -0.165000
     16 OXT         12.6900    71.6930    92.3940 o          1 0AF      -0.843800
     17 HN1         13.0580    67.8630    92.0200 hn         1 0AF       0.329300
     18 HN2         14.4540    68.2420    92.6980 hn         1 0AF       0.329300
     19 HA          11.8660    69.3930    93.3220 h1         1 0AF       0.036700
     20 HBC1        12.9760    70.8610    94.8640 hc         1 0AF       0.035200
     21 HBC2        13.1880    69.1890    95.3380 hc         1 0AF       0.035200
     22 HD1         15.2590    72.2620    94.1220 h4         1 0AF       0.179000
     23 HE1         17.6750    71.8180    94.4080 hn         1 0AF       0.280700
     24 HE3         14.9350    67.2940    95.3930 ha         1 0AF       0.147000
     25 HZ3         17.0410    66.0840    95.8640 ha         1 0AF       0.115000
     26 H1          19.6320    70.4550    94.4770 ho         1 0AF       0.411000
     27 HH2         19.2230    67.2050    95.6520 ha         1 0AF       0.124000
@<TRIPOS>BOND
     1     1     2 1   
     2     1    17 1   
     3     1    18 1   
     4     2     3 1   
     5     2     5 1   
     6     2    19 1   
     7     3     4 1   
     8     3    16 1   
     9     5     6 1   
    10     5    20 1   
    11     5    21 1   
    12     6     7 2   
    13     6     8 1   
    14     7     9 1   
    15     7    22 1   
    16     8    10 ar  
    17     8    11 ar  
    18     9    10 1   
    19     9    23 1   
    20    10    12 ar  
    21    11    14 ar  
    22    11    24 1   
    23    12    13 1   
    24    12    15 ar  
    25    13    26 1   
    26    14    15 ar  
    27    14    25 1   
    28    15    27 1   
@<TRIPOS>SUBSTRUCTURE
     1 0AF         1 TEMP              0 ****  ****    0 ROOT
