@<TRIPOS>MOLECULE
0AF
   27    28     1     0     0
SMALL
No Charge or Current Charge


@<TRIPOS>ATOM
      1 N           13.3470    68.0530    92.9490 n8         1 0AF      -0.999200
      2 CA          12.9390    69.4770    93.2500 c3         1 0AF       0.015500
      3 C           13.2290    70.5590    92.1260 c          1 0AF       0.693000
      4 O           13.9810    70.2650    91.2040 o          1 0AF      -0.738500
      5 CB          13.5040    69.9500    94.6180 c3         1 0AF       0.018800
      6 CG          15.0000    70.1620    94.6440 cc         1 0AF      -0.105400
      7 CD1         15.6790    71.3530    94.4060 cd         1 0AF      -0.139100
      8 CD2         16.0150    69.1840    94.9280 ca         1 0AF      -0.055800
      9 NE1         17.0740    71.1440    94.5230 na         1 0AF      -0.237700
     10 CE2         17.2350    69.8010    94.8470 ca         1 0AF      -0.123200
     11 CE3         15.8890    67.8250    95.2560 ca         1 0AF      -0.072000
     12 CZ2         18.4240    69.0830    95.0850 ca         1 0AF       0.102100
     13 O1          19.6510    69.6770    95.0090 oh         1 0AF      -0.556100
     14 CZ3         17.0650    67.0870    95.4980 ca         1 0AF      -0.136000
     15 CH2         18.3280    67.7150    95.4110 ca         1 0AF      -0.147000
     16 OXT         12.6030    71.6100    92.1600 o          1 0AF      -0.738500
     17 HN1         13.0030    67.8070    92.0140 hn         1 0AF       0.384500
     18 HN2         14.3670    68.0430    92.8260 hn         1 0AF       0.384500
     19 HA          11.8450    69.4560    93.3520 h1         1 0AF       0.036700
     20 HBC1        13.0060    70.8870    94.8960 hc         1 0AF       0.035200
     21 HBC2        13.2210    69.2280    95.3940 hc         1 0AF       0.035200
     22 HD1         15.2670    72.3290    94.1590 h4         1 0AF       0.229000
     23 HE1         17.7970    71.8460    94.3970 hn         1 0AF       0.331000
     24 HE3         14.9120    67.3530    95.3250 ha         1 0AF       0.129000
     25 HZ3         17.0000    66.0320    95.7530 ha         1 0AF       0.097000
     26 H1          19.5270    70.6170    94.7670 ho         1 0AF       0.450000
     27 HH2         19.2320    67.1400    95.5990 ha         1 0AF       0.106000
@<TRIPOS>BOND
     1     1     2 1   
     2     1    17 1   
     3     1    18 1   
     4     2     3 1   
     5     2     5 1   
     6     2    19 1   
     7     3     4 1   
     8     3    16 1   
     9     5     6 1   
    10     5    20 1   
    11     5    21 1   
    12     6     7 2   
    13     6     8 1   
    14     7     9 1   
    15     7    22 1   
    16     8    10 ar  
    17     8    11 ar  
    18     9    10 1   
    19     9    23 1   
    20    10    12 ar  
    21    11    14 ar  
    22    11    24 1   
    23    12    13 1   
    24    12    15 ar  
    25    13    26 1   
    26    14    15 ar  
    27    14    25 1   
    28    15    27 1   
@<TRIPOS>SUBSTRUCTURE
     1 0AF         1 TEMP              0 ****  ****    0 ROOT
