@<TRIPOS>MOLECULE
0AG
   30    29     1     0     0
SMALL
bcc


@<TRIPOS>ATOM
      1 C3          24.7080     7.9590    -0.2740 c3         1 0AG      -0.095100
      2 C4          25.9260     7.6940    -1.1260 c3         1 0AG       0.165400
      3 O2          27.0810     7.9190    -0.3180 os         1 0AG      -0.457900
      4 C1          28.2820     7.8200    -0.9060 c          1 0AG       0.755100
      5 O1          28.4350     7.5380    -2.0790 o          1 0AG      -0.608000
      6 N           29.2650     8.1250    -0.0420 ns         1 0AG      -0.512900
      7 CA          30.6480     7.8360    -0.3460 c3         1 0AG      -0.036300
      8 C           30.9800     6.3170    -0.3230 c          1 0AG       0.923600
      9 O           30.1070     5.5420     0.1040 o          1 0AG      -0.827300
     10 CB          31.5520     8.5920     0.6290 c3         1 0AG      -0.067400
     11 CG          31.3430    10.1070     0.6990 c3         1 0AG      -0.063700
     12 CD1         32.3190    10.7110     1.7040 c3         1 0AG      -0.082600
     13 CD2         31.4970    10.7740    -0.6630 c3         1 0AG      -0.082600
     14 OXT         32.1200     6.0270    -0.7350 o          1 0AG      -0.827300
     15 H31         23.8100     7.7880    -0.8660 hc         1 0AG       0.034033
     16 H32         24.6690     7.2960     0.5910 hc         1 0AG       0.034033
     17 H33         24.6840     8.9900     0.0790 hc         1 0AG       0.034033
     18 H41         25.9220     6.6650    -1.4950 h1         1 0AG       0.039200
     19 H42         25.9360     8.3570    -1.9950 h1         1 0AG       0.039200
     20 H           29.0110     8.1790     0.9330 hn         1 0AG       0.300500
     21 HA          30.8510     8.2010    -1.3550 h1         1 0AG       0.062700
     22 HBC1        31.4240     8.1730     1.6350 hc         1 0AG       0.047200
     23 HBC2        32.5870     8.3930     0.3440 hc         1 0AG       0.047200
     24 HG          30.3280    10.3040     1.0600 hc         1 0AG       0.037700
     25 HD11        32.1580    11.7850     1.8190 hc         1 0AG       0.023533
     26 HD12        32.2150    10.2520     2.6890 hc         1 0AG       0.023533
     27 HD13        33.3530    10.5660     1.3790 hc         1 0AG       0.023533
     28 HD21        31.3940    11.8570    -0.5800 hc         1 0AG       0.023533
     29 HD22        32.4810    10.5660    -1.0890 hc         1 0AG       0.023533
     30 HD23        30.7470    10.4290    -1.3770 hc         1 0AG       0.023533
@<TRIPOS>BOND
     1     1     2 1   
     2     1    15 1   
     3     1    16 1   
     4     1    17 1   
     5     2     3 1   
     6     2    18 1   
     7     2    19 1   
     8     3     4 1   
     9     4     5 2   
    10     4     6 1   
    11     6     7 1   
    12     6    20 1   
    13     7     8 1   
    14     7    10 1   
    15     7    21 1   
    16     8     9 1   
    17     8    14 1   
    18    10    11 1   
    19    10    22 1   
    20    10    23 1   
    21    11    12 1   
    22    11    13 1   
    23    11    24 1   
    24    12    25 1   
    25    12    26 1   
    26    12    27 1   
    27    13    28 1   
    28    13    29 1   
    29    13    30 1   
@<TRIPOS>SUBSTRUCTURE
     1 0AG         1 TEMP              0 ****  ****    0 ROOT
