@<TRIPOS>MOLECULE
0AG
   30    29     1     0     0
SMALL
No Charge or Current Charge


@<TRIPOS>ATOM
      1 C3          24.7730     7.9580    -0.1880 c3         1 0AG      -0.095100
      2 C4          26.0340     8.3640    -0.9680 c3         1 0AG       0.188600
      3 O2          27.1680     7.8140    -0.2770 os         1 0AG      -0.481100
      4 C1          28.4030     8.0550    -0.7970 c          1 0AG       0.639100
      5 O1          28.6370     8.6880    -1.8150 o          1 0AG      -0.559000
      6 N           29.3390     7.4460    -0.0060 ns         1 0AG      -0.445900
      7 CA          30.8060     7.4780    -0.2160 c3         1 0AG      -0.036300
      8 C           31.4080     6.0570     0.0130 c          1 0AG       0.713000
      9 O           31.1780     5.4870     1.0720 o          1 0AG      -0.722000
     10 CB          31.4990     8.5350     0.6900 c3         1 0AG      -0.067400
     11 CG          31.1450    10.0210     0.3990 c3         1 0AG      -0.063700
     12 CD1         31.7060    10.9470     1.5030 c3         1 0AG      -0.082600
     13 CD2         31.6260    10.4880    -0.9960 c3         1 0AG      -0.082600
     14 OXT         32.0250     5.5370    -0.9060 o          1 0AG      -0.722000
     15 H31         23.8790     8.3580    -0.6800 hc         1 0AG       0.034033
     16 H32         24.6820     6.8670    -0.1420 hc         1 0AG       0.034033
     17 H33         24.8080     8.3520     0.8340 hc         1 0AG       0.034033
     18 H41         25.9730     7.9720    -1.9930 h1         1 0AG       0.039200
     19 H42         26.0990     9.4590    -1.0160 h1         1 0AG       0.039200
     20 H           28.9770     6.9330     0.7880 hn         1 0AG       0.300500
     21 HA          31.0020     7.7280    -1.2660 h1         1 0AG       0.062700
     22 HBC1        31.2520     8.3060     1.7350 hc         1 0AG       0.047200
     23 HBC2        32.5850     8.4120     0.6010 hc         1 0AG       0.047200
     24 HG          30.0540    10.1240     0.4260 hc         1 0AG       0.037700
     25 HD11        31.4160    11.9890     1.3200 hc         1 0AG       0.023533
     26 HD12        31.3180    10.6580     2.4870 hc         1 0AG       0.023533
     27 HD13        32.8010    10.8960     1.5370 hc         1 0AG       0.023533
     28 HD21        31.3690    11.5410    -1.1600 hc         1 0AG       0.023533
     29 HD22        32.7140    10.3850    -1.0880 hc         1 0AG       0.023533
     30 HD23        31.1580     9.9060    -1.7970 hc         1 0AG       0.023533
@<TRIPOS>BOND
     1     1     2 1   
     2     1    15 1   
     3     1    16 1   
     4     1    17 1   
     5     2     3 1   
     6     2    18 1   
     7     2    19 1   
     8     3     4 1   
     9     4     5 2   
    10     4     6 1   
    11     6     7 1   
    12     6    20 1   
    13     7     8 1   
    14     7    10 1   
    15     7    21 1   
    16     8     9 1   
    17     8    14 1   
    18    10    11 1   
    19    10    22 1   
    20    10    23 1   
    21    11    12 1   
    22    11    13 1   
    23    11    24 1   
    24    12    25 1   
    25    12    26 1   
    26    12    27 1   
    27    13    28 1   
    28    13    29 1   
    29    13    30 1   
@<TRIPOS>SUBSTRUCTURE
     1 0AG         1 TEMP              0 ****  ****    0 ROOT
