@<TRIPOS>MOLECULE
0AH
   18    17     1     0     0
SMALL
No Charge or Current Charge


@<TRIPOS>ATOM
      1 N           31.2290    34.9570   204.3410 n8         1 0AH      -0.991200
      2 CA          31.5020    35.4620   205.7510 c3         1 0AH      -0.024500
      3 C           32.9470    35.1860   206.3120 c          1 0AH       0.697000
      4 O           33.6670    36.1450   206.5530 o          1 0AH      -0.724000
      5 CB          30.4690    34.9360   206.7950 c3         1 0AH       0.188600
      6 C1          28.6870    36.5500   206.4420 c          1 0AH       0.602100
      7 O1          29.3120    37.4640   206.9690 o          1 0AH      -0.499000
      8 O2          29.1230    35.2510   206.3700 os         1 0AH      -0.419100
      9 C2          27.2590    36.6840   205.8970 c3         1 0AH       0.009600
     10 Br2         26.4730    38.5260   206.0360 br         1 0AH      -0.245000
     11 OXT         33.3240    34.0250   206.3970 o          1 0AH      -0.724000
     12 HN1         31.9300    35.3480   203.6990 hn         1 0AH       0.383500
     13 HN2         31.4190    33.9470   204.3080 hn         1 0AH       0.383500
     14 HA          31.4050    36.5550   205.7160 h1         1 0AH       0.055700
     15 HBC1        30.5820    33.8480   206.8860 h1         1 0AH       0.065700
     16 HBC2        30.6810    35.3680   207.7830 h1         1 0AH       0.065700
     17 H2C1        27.2600    36.4060   204.8370 h1         1 0AH       0.087200
     18 H2C2        26.6030    36.0030   206.4510 h1         1 0AH       0.087200
@<TRIPOS>BOND
     1     1     2 1   
     2     1    12 1   
     3     1    13 1   
     4     2     3 1   
     5     2     5 1   
     6     2    14 1   
     7     3     4 1   
     8     3    11 1   
     9     5     8 1   
    10     5    15 1   
    11     5    16 1   
    12     6     7 2   
    13     6     8 1   
    14     6     9 1   
    15     9    10 1   
    16     9    17 1   
    17     9    18 1   
@<TRIPOS>SUBSTRUCTURE
     1 0AH         1 TEMP              0 ****  ****    0 ROOT
