@<TRIPOS>MOLECULE
0AH
   18    17     1     0     0
SMALL
bcc


@<TRIPOS>ATOM
      1 N           30.8870    34.1500   204.9350 n8         1 0AH      -0.880800
      2 CA          31.4600    35.2480   205.6920 c3         1 0AH      -0.024500
      3 C           32.9300    35.0580   206.1730 c          1 0AH       0.907600
      4 O           33.4260    36.0310   206.7780 o          1 0AH      -0.829300
      5 CB          30.6050    35.5440   206.9190 c3         1 0AH       0.165400
      6 C1          28.8440    36.9210   206.1370 c          1 0AH       0.651100
      7 O1          29.5540    37.8850   205.9960 o          1 0AH      -0.548000
      8 O2          29.2180    35.7530   206.5950 os         1 0AH      -0.395900
      9 C2          27.3890    37.0020   205.7330 c3         1 0AH      -0.073000
     10 BR2         26.2540    35.5540   206.3610 br         1 0AH      -0.162400
     11 OXT         33.4750    33.9690   205.9210 o          1 0AH      -0.829300
     12 HN1         31.3660    34.0900   204.0460 hn         1 0AH       0.328300
     13 HN2         31.1200    33.2830   205.4060 hn         1 0AH       0.328300
     14 HA          31.4480    36.1360   205.0520 h1         1 0AH       0.055700
     15 HBC1        30.5910    34.6830   207.5890 h1         1 0AH       0.065700
     16 HBC2        30.9960    36.4000   207.4660 h1         1 0AH       0.065700
     17 H2C1        26.9740    37.9400   206.1000 h1         1 0AH       0.087200
     18 H2C2        27.3360    37.0150   204.6430 h1         1 0AH       0.087200
@<TRIPOS>BOND
     1     1     2 1   
     2     1    12 1   
     3     1    13 1   
     4     2     3 1   
     5     2     5 1   
     6     2    14 1   
     7     3     4 1   
     8     3    11 1   
     9     5     8 1   
    10     5    15 1   
    11     5    16 1   
    12     6     7 2   
    13     6     8 1   
    14     6     9 1   
    15     9    10 1   
    16     9    17 1   
    17     9    18 1   
@<TRIPOS>SUBSTRUCTURE
     1 0AH         1 TEMP              0 ****  ****    0 ROOT
