@<TRIPOS>MOLECULE
0AI
   31    31     1     0     0
SMALL
No Charge or Current Charge


@<TRIPOS>ATOM
      1 O6           4.0660    -0.6040    -1.0540 o          1 0AI      -0.703000
      2 C6           3.3820    -0.1450    -0.1480 c          1 0AI       0.732000
      3 O5           1.0450    -0.7690     0.6530 os         1 0AI      -0.437000
      4 C1          -0.3630    -0.9240     0.3440 c6         1 0AI       0.367300
      5 C5           1.8380    -0.1480    -0.4100 c6         1 0AI      -0.016700
      6 C2          -1.0170     0.4670     0.0460 c6         1 0AI       0.094700
      7 N2          -2.4390     0.3420    -0.3580 ns         1 0AI      -0.487900
      8 C7          -3.4780     0.0340     0.4820 c          1 0AI       0.604100
      9 O7          -3.3130    -0.1750     1.6750 o          1 0AI      -0.609100
     10 C8          -4.8470    -0.0290    -0.1840 c3         1 0AI      -0.180100
     11 C3          -0.1880     1.2270    -1.0400 c6         1 0AI       0.150300
     12 O3          -0.6810     2.5650    -1.2140 oh         1 0AI      -0.646000
     13 C4           1.3200     1.2910    -0.6470 c6         1 0AI       0.141300
     14 O4           1.4820     2.0910     0.5410 oh         1 0AI      -0.765000
     15 H1          -0.8690    -1.3540     1.2220 h2         1 0AI       0.057700
     16 H2          -0.9810     1.0480     0.9780 h1         1 0AI       0.124700
     17 H3          -0.2750     0.6780    -1.9900 h1         1 0AI       0.022700
     18 HA          -2.6740     0.5080    -1.3290 hn         1 0AI       0.309500
     19 H4           1.8840     1.7370    -1.4800 h1         1 0AI       0.017700
     20 HB          -0.1440     3.1000    -0.5860 ho         1 0AI       0.431000
     21 H5           1.6890    -0.7250    -1.3340 h1         1 0AI       0.037700
     22 HC           1.7220     1.4580     1.2630 ho         1 0AI       0.574000
     23 H8C1        -5.6500    -0.2770     0.5200 hc         1 0AI       0.049367
     24 H8C2        -5.0390     0.9200    -0.6970 hc         1 0AI       0.049367
     25 H8C3        -4.8070    -0.7390    -1.0180 hc         1 0AI       0.049367
     26 HMC1        -0.3090    -3.8070    -1.4220 h1         1 0AI       0.027367
     27 HMC2         0.9450    -3.2610    -0.2880 h1         1 0AI       0.027367
     28 HMC3        -0.6950    -3.6270     0.3040 h1         1 0AI       0.027367
     29 O71          3.7410    -0.2830     1.0150 o          1 0AI      -0.703000
     30 O1          -0.5180    -1.8350    -0.7660 os         1 0AI      -0.504000
     31 CM          -0.1240    -3.1960    -0.5290 c3         1 0AI       0.156900
@<TRIPOS>BOND
     1     1     2 1   
     2     2     5 1   
     3     2    29 1   
     4     3     4 1   
     5     3     5 1   
     6     4     6 1   
     7     4    15 1   
     8     4    30 1   
     9     5    13 1   
    10     5    21 1   
    11     6     7 1   
    12     6    11 1   
    13     6    16 1   
    14     7     8 1   
    15     7    18 1   
    16     8     9 2   
    17     8    10 1   
    18    10    23 1   
    19    10    24 1   
    20    10    25 1   
    21    11    12 1   
    22    11    13 1   
    23    11    17 1   
    24    12    20 1   
    25    13    14 1   
    26    13    19 1   
    27    14    22 1   
    28    26    31 1   
    29    27    31 1   
    30    28    31 1   
    31    30    31 1   
@<TRIPOS>SUBSTRUCTURE
     1 0AI         1 TEMP              0 ****  ****    0 ROOT
