@<TRIPOS>MOLECULE
0AI
   31    31     1     0     0
SMALL
bcc


@<TRIPOS>ATOM
      1 O6           4.0760    -0.8970    -0.4260 o          1 0AI      -0.808300
      2 C6           3.2620    -0.1720     0.1550 c          1 0AI       0.942600
      3 O5           1.0760    -0.9840     0.5550 os         1 0AI      -0.390600
      4 C1          -0.2760    -1.1460     0.2490 c6         1 0AI       0.320900
      5 C5           1.8040    -0.1660    -0.3570 c6         1 0AI      -0.039900
      6 C2          -0.9970     0.2020     0.1390 c6         1 0AI       0.094700
      7 N2          -2.3730     0.0010    -0.2320 ns         1 0AI      -0.554900
      8 C7          -3.4220     0.5120     0.4370 c          1 0AI       0.671100
      9 O7          -3.3140     1.1600     1.4700 o          1 0AI      -0.609100
     10 C8          -4.7710     0.2260    -0.1760 c3         1 0AI      -0.180100
     11 C3          -0.2650     1.1260    -0.8320 c6         1 0AI       0.127100
     12 O3          -0.9300     2.3630    -0.8290 oh         1 0AI      -0.583800
     13 C4           1.2000     1.2380    -0.4120 c6         1 0AI       0.118100
     14 O4           1.2860     1.8950     0.8230 oh         1 0AI      -0.642800
     15 H1          -0.6950    -1.7170     1.0890 h2         1 0AI       0.057700
     16 H2          -0.9870     0.6600     1.1280 h1         1 0AI       0.124700
     17 H3          -0.2850     0.6760    -1.8360 h1         1 0AI       0.022700
     18 HA          -2.5530    -0.5090    -1.0830 hn         1 0AI       0.309500
     19 H4           1.7420     1.7930    -1.2000 h1         1 0AI       0.017700
     20 HB          -0.5280     2.9220    -1.5010 ho         1 0AI       0.392000
     21 H5           1.7790    -0.5970    -1.3650 h1         1 0AI       0.037700
     22 HC           2.1330     1.5640     1.2050 ho         1 0AI       0.475000
     23 H8C1        -5.4240    -0.2190     0.5740 hc         1 0AI       0.049367
     24 H8C2        -5.2290     1.1650    -0.4890 hc         1 0AI       0.049367
     25 H8C3        -4.7290    -0.4370    -1.0380 hc         1 0AI       0.049367
     26 HMC1        -0.4070    -3.6510    -1.8360 h1         1 0AI       0.027367
     27 HMC2         1.0360    -3.2760    -0.8820 h1         1 0AI       0.027367
     28 HMC3        -0.4750    -3.7190    -0.0660 h1         1 0AI       0.027367
     29 O71          3.4920     0.5680     1.1480 o          1 0AI      -0.808300
     30 O1          -0.4730    -1.8330    -0.9460 os         1 0AI      -0.457600
     31 CM          -0.0520    -3.1810    -0.9210 c3         1 0AI       0.133700
@<TRIPOS>BOND
     1     1     2 1   
     2     2     5 1   
     3     2    29 1   
     4     3     4 1   
     5     3     5 1   
     6     4     6 1   
     7     4    15 1   
     8     4    30 1   
     9     5    13 1   
    10     5    21 1   
    11     6     7 1   
    12     6    11 1   
    13     6    16 1   
    14     7     8 1   
    15     7    18 1   
    16     8     9 2   
    17     8    10 1   
    18    10    23 1   
    19    10    24 1   
    20    10    25 1   
    21    11    12 1   
    22    11    13 1   
    23    11    17 1   
    24    12    20 1   
    25    13    14 1   
    26    13    19 1   
    27    14    22 1   
    28    26    31 1   
    29    27    31 1   
    30    28    31 1   
    31    30    31 1   
@<TRIPOS>SUBSTRUCTURE
     1 0AI         1 TEMP              0 ****  ****    0 ROOT
