@<TRIPOS>MOLECULE
0AJ
   19    18     1     0     0
SMALL
abcg2


@<TRIPOS>ATOM
      1 CA           1.5450     1.8220    -0.0640 c3         1 0AJ      -0.078100
      2 CB           0.6250     0.7460     0.4890 c3         1 0AJ       0.223300
      3 SG           1.3970    -0.9020     0.5230 ss         1 0AJ      -0.441000
      4 CD           1.7210    -1.1870    -1.2290 c3         1 0AJ       0.042900
      5 S           -0.9420     0.8000    -0.4290 ss         1 0AJ      -0.442000
      6 C1          -1.9680    -0.3270     0.5540 c3         1 0AJ       0.065600
      7 C2          -3.3120    -0.5250    -0.1260 c3         1 0AJ      -0.079100
      8 HAC1         1.7790     1.6550    -1.1160 hc         1 0AJ       0.051700
      9 HAC2         1.0800     2.8040     0.0250 hc         1 0AJ       0.051700
     10 HAC3         2.4800     1.8360     0.4950 hc         1 0AJ       0.051700
     11 HB           0.4130     0.9530     1.5410 h2         1 0AJ       0.093700
     12 HDC1         2.0230    -2.2280    -1.3320 h1         1 0AJ       0.065367
     13 HDC2         0.8170    -1.0260    -1.8150 h1         1 0AJ       0.065367
     14 HDC3         2.5210    -0.5540    -1.6080 h1         1 0AJ       0.065367
     15 H1C1        -1.4380    -1.2760     0.6510 h1         1 0AJ       0.065700
     16 H1C2        -2.0990     0.0880     1.5540 h1         1 0AJ       0.065700
     17 H2C1        -3.9230    -1.2120     0.4590 hc         1 0AJ       0.044033
     18 H2C2        -3.8600     0.4120    -0.2170 hc         1 0AJ       0.044033
     19 H2C3        -3.1950    -0.9490    -1.1240 hc         1 0AJ       0.044033
@<TRIPOS>BOND
     1     1     2 1   
     2     1     8 1   
     3     1     9 1   
     4     1    10 1   
     5     2     3 1   
     6     2     5 1   
     7     2    11 1   
     8     3     4 1   
     9     4    12 1   
    10     4    13 1   
    11     4    14 1   
    12     5     6 1   
    13     6     7 1   
    14     6    15 1   
    15     6    16 1   
    16     7    17 1   
    17     7    18 1   
    18     7    19 1   
@<TRIPOS>SUBSTRUCTURE
     1 0AJ         1 TEMP              0 ****  ****    0 ROOT
