@<TRIPOS>MOLECULE
0AJ
   19    18     1     0     0
SMALL
No Charge or Current Charge


@<TRIPOS>ATOM
      1 CA           1.5450     1.7870    -0.0480 c3         1 0AJ      -0.078100
      2 CB           0.6020     0.6840     0.4670 c3         1 0AJ       0.223300
      3 SG           1.4280    -0.9750     0.4790 ss         1 0AJ      -0.441000
      4 CD           1.9080    -1.1750    -1.3010 c3         1 0AJ       0.042900
      5 S           -0.9330     0.6300    -0.5570 ss         1 0AJ      -0.442000
      6 C1          -2.0440    -0.3140     0.5790 c3         1 0AJ       0.065600
      7 C2          -3.4320    -0.4930    -0.0560 c3         1 0AJ      -0.079100
      8 HAC1         1.7820     1.6490    -1.1090 hc         1 0AJ       0.051700
      9 HAC2         1.0740     2.7700     0.0670 hc         1 0AJ       0.051700
     10 HAC3         2.4810     1.7900     0.5230 hc         1 0AJ       0.051700
     11 HB           0.3150     0.9250     1.4980 h2         1 0AJ       0.093700
     12 HDC1         2.3200    -2.1800    -1.4590 h1         1 0AJ       0.065367
     13 HDC2         1.0300    -1.0470    -1.9470 h1         1 0AJ       0.065367
     14 HDC3         2.6710    -0.4360    -1.5750 h1         1 0AJ       0.065367
     15 H1C1        -1.6030    -1.2990     0.7840 h1         1 0AJ       0.065700
     16 H1C2        -2.1380     0.2280     1.5290 h1         1 0AJ       0.065700
     17 H2C1        -4.0910    -1.0530     0.6180 hc         1 0AJ       0.044033
     18 H2C2        -3.8930     0.4820    -0.2580 hc         1 0AJ       0.044033
     19 H2C3        -3.3560    -1.0440    -1.0010 hc         1 0AJ       0.044033
@<TRIPOS>BOND
     1     1     2 1   
     2     1     8 1   
     3     1     9 1   
     4     1    10 1   
     5     2     3 1   
     6     2     5 1   
     7     2    11 1   
     8     3     4 1   
     9     4    12 1   
    10     4    13 1   
    11     4    14 1   
    12     5     6 1   
    13     6     7 1   
    14     6    15 1   
    15     6    16 1   
    16     7    17 1   
    17     7    18 1   
    18     7    19 1   
@<TRIPOS>SUBSTRUCTURE
     1 0AJ         1 TEMP              0 ****  ****    0 ROOT
