@<TRIPOS>MOLECULE
0AK
   21    20     1     0     0
SMALL
No Charge or Current Charge


@<TRIPOS>ATOM
      1 N           33.5470    99.3440    28.7070 n8         1 0AK      -0.999200
      2 CA          32.4590   100.2100    29.2930 c3         1 0AK       0.021500
      3 C           31.9440    99.8220    30.7470 c          1 0AK       0.724000
      4 O           32.1900   100.5930    31.6660 o          1 0AK      -0.726500
      5 CB          31.2820   100.3240    28.2910 c3         1 0AK      -0.095400
      6 CG          30.2990   101.4160    28.7250 c          1 0AK       0.642100
      7 OD1         29.3450   101.2190    29.4670 o          1 0AK      -0.516000
      8 OD2         30.6350   102.6410    28.2020 os         1 0AK      -0.445100
      9 C1          29.8500   103.7990    28.5610 c3         1 0AK       0.161600
     10 C2          30.1760   104.2170    30.0140 c3         1 0AK       0.120600
     11 Cl          29.3270   105.7690    30.4670 cl         1 0AK      -0.340000
     12 OXT         31.3830    98.7450    30.9120 o          1 0AK      -0.726500
     13 HN1         33.8950    99.7670    27.8380 hn         1 0AK       0.384000
     14 HN2         34.3660    99.3590    29.3300 hn         1 0AK       0.384000
     15 HA          32.9000   101.2130    29.3820 h1         1 0AK       0.013700
     16 HBC1        31.7060   100.6060    27.3190 hc         1 0AK       0.052700
     17 HBC2        30.7600    99.3620    28.2230 hc         1 0AK       0.052700
     18 H1C1        30.1020   104.6350    27.8960 h1         1 0AK       0.049700
     19 H1C2        28.7760   103.6000    28.4560 h1         1 0AK       0.049700
     20 H2C1        29.8560   103.4450    30.7240 h1         1 0AK       0.097700
     21 H2C2        31.2550   104.3820    30.1250 h1         1 0AK       0.097700
@<TRIPOS>BOND
     1     1     2 1   
     2     1    13 1   
     3     1    14 1   
     4     2     3 1   
     5     2     5 1   
     6     2    15 1   
     7     3     4 1   
     8     3    12 1   
     9     5     6 1   
    10     5    16 1   
    11     5    17 1   
    12     6     7 2   
    13     6     8 1   
    14     8     9 1   
    15     9    10 1   
    16     9    18 1   
    17     9    19 1   
    18    10    11 1   
    19    10    20 1   
    20    10    21 1   
@<TRIPOS>SUBSTRUCTURE
     1 0AK         1 TEMP              0 ****  ****    0 ROOT
