@<TRIPOS>MOLECULE
0AK
   21    20     1     0     0
SMALL
abcg2


@<TRIPOS>ATOM
      1 N           33.4790    99.3130    28.7520 n8         1 0AK      -0.999200
      2 CA          32.5830   100.4000    29.1180 c3         1 0AK       0.021500
      3 C           32.2800   100.3810    30.6340 c          1 0AK       0.724000
      4 O           33.1730    99.9500    31.3850 o          1 0AK      -0.726500
      5 CB          31.2970   100.2810    28.3030 c3         1 0AK      -0.095400
      6 CG          30.2780   101.3560    28.5550 c          1 0AK       0.642100
      7 OD1         29.0910   101.1790    28.6690 o          1 0AK      -0.516000
      8 OD2         30.8300   102.5760    28.5090 os         1 0AK      -0.445100
      9 C1          30.0040   103.7070    28.7450 c3         1 0AK       0.161600
     10 C2          29.8200   103.9230    30.2350 c3         1 0AK       0.120600
     11 CL          28.9100   105.4540    30.4770 cl         1 0AK      -0.340000
     12 OXT         31.1700   100.8410    30.9740 o          1 0AK      -0.726500
     13 HN1         33.9510    99.5360    27.8860 hn         1 0AK       0.384000
     14 HN2         34.1960    99.2460    29.4630 hn         1 0AK       0.384000
     15 HA          33.0320   101.3840    28.9110 h1         1 0AK       0.013700
     16 HBC1        31.5400   100.3110    27.2340 hc         1 0AK       0.052700
     17 HBC2        30.8280    99.3150    28.4910 hc         1 0AK       0.052700
     18 H1C1        30.5330   104.5530    28.3100 h1         1 0AK       0.049700
     19 H1C2        29.0380   103.6110    28.2480 h1         1 0AK       0.049700
     20 H2C1        29.2460   103.1270    30.7000 h1         1 0AK       0.097700
     21 H2C2        30.7750   104.0240    30.7460 h1         1 0AK       0.097700
@<TRIPOS>BOND
     1     1     2 1   
     2     1    13 1   
     3     1    14 1   
     4     2     3 1   
     5     2     5 1   
     6     2    15 1   
     7     3     4 1   
     8     3    12 1   
     9     5     6 1   
    10     5    16 1   
    11     5    17 1   
    12     6     7 2   
    13     6     8 1   
    14     8     9 1   
    15     9    10 1   
    16     9    18 1   
    17     9    19 1   
    18    10    11 1   
    19    10    20 1   
    20    10    21 1   
@<TRIPOS>SUBSTRUCTURE
     1 0AK         1 TEMP              0 ****  ****    0 ROOT
