@<TRIPOS>MOLECULE
0AN
   64    68     1     0     0
SMALL
abcg2


@<TRIPOS>ATOM
      1 CLBF        -8.5440     7.7140    31.5250 cl         1 0AN      -0.209000
      2 CBA         -7.1810     7.7700    30.4470 ca         1 0AN       0.135000
      3 CBB         -6.4930     8.9700    30.3500 ca         1 0AN      -0.105000
      4 CBC         -5.4040     9.0700    29.5010 ca         1 0AN      -0.095000
      5 CBD         -5.0160     7.9670    28.7500 ca         1 0AN      -0.108000
      6 CBE         -5.7150     6.7790    28.8560 ca         1 0AN      -0.093000
      7 CAZ         -6.8110     6.6380    29.7140 ca         1 0AN      -0.045800
      8 CAW         -7.5550     5.3790    29.8180 ce         1 0AN      -0.158200
      9 CAV         -7.1130     4.1820    29.4290 c2         1 0AN      -0.211200
     10 CAH         -7.9140     2.9120    29.4510 c3         1 0AN      -0.057500
     11 CAI         -9.1540     3.0170    30.3230 c3         1 0AN       0.121000
     12 NAJ         -9.7310     1.7290    30.6860 n          1 0AN      -0.389800
     13 CAX         -9.8200     1.4920    32.1160 c3         1 0AN       0.042700
     14 CBG        -10.8340     2.3900    32.7800 ca         1 0AN       0.317300
     15 NBH        -12.0500     2.4220    32.2430 nb         1 0AN      -0.654000
     16 CBI        -12.9710     3.1870    32.8140 ca         1 0AN       0.341900
     17 CBJ        -12.7330     3.9580    33.9430 ca         1 0AN      -0.162000
     18 CBK        -11.4650     3.9280    34.4990 ca         1 0AN      -0.071000
     19 CBL        -10.4960     3.1320    33.9050 ca         1 0AN      -0.159000
     20 C          -10.2430     0.8120    29.8420 c          1 0AN       0.568000
     21 O          -10.7680    -0.2210    30.2370 o          1 0AN      -0.561000
     22 CA         -10.1720     0.9750    28.3200 c6         1 0AN       0.164500
     23 CB          -9.3510    -0.1690    27.7150 c6         1 0AN      -0.082400
     24 CAA         -7.8650     0.0270    27.9790 c6         1 0AN      -0.076400
     25 CAB         -7.4070     1.3760    27.4410 c6         1 0AN      -0.088400
     26 CAC         -8.2460     2.5330    27.9750 c6         1 0AN       0.245500
     27 N           -9.6710     2.2470    27.8190 n3         1 0AN      -0.789500
     28 SAL        -10.5520     3.1430    26.7600 sy         1 0AN       1.190600
     29 OAM         -9.6950     3.5710    25.6680 o          1 0AN      -0.535000
     30 OAN        -11.7780     2.4190    26.4740 o          1 0AN      -0.535000
     31 CAO        -10.9930     4.6160    27.6620 ca         1 0AN      -0.263500
     32 CAP        -12.0680     4.5640    28.5400 ca         1 0AN      -0.008000
     33 CAQ        -12.3690     5.7050    29.2630 ca         1 0AN       0.102500
     34 CLAU       -13.7030     5.6860    30.3570 cl         1 0AN      -0.179500
     35 CAR        -11.6290     6.8710    29.1290 ca         1 0AN      -0.051000
     36 CAS        -10.5740     6.8840    28.2330 ca         1 0AN       0.102500
     37 CLAY        -9.6610     8.3310    28.0310 cl         1 0AN      -0.179500
     38 CAT        -10.2380     5.7630    27.4890 ca         1 0AN      -0.008000
     39 HBB         -6.8090     9.8230    30.9360 ha         1 0AN       0.130000
     40 HBC         -4.8680    10.0060    29.4230 ha         1 0AN       0.121000
     41 HBD         -4.1750     8.0370    28.0730 ha         1 0AN       0.120000
     42 HBE         -5.4150     5.9380    28.2440 ha         1 0AN       0.116000
     43 HAW         -8.5450     5.4560    30.2480 ha         1 0AN       0.187000
     44 HAV         -6.1170     4.0780    29.0070 ha         1 0AN       0.176000
     45 HAH         -7.2810     2.1280    29.8840 hc         1 0AN       0.073700
     46 HB3         -8.8630     3.4880    31.2620 h1         1 0AN       0.053200
     47 HAI         -9.9070     3.6690    29.8820 h1         1 0AN       0.053200
     48 HAX        -10.0860     0.4510    32.2880 h1         1 0AN       0.073200
     49 HB4         -8.8350     1.6530    32.5590 h1         1 0AN       0.073200
     50 HBI        -13.9520     3.1860    32.3520 h4         1 0AN       0.022100
     51 HBJ        -13.5220     4.5640    34.3670 ha         1 0AN       0.125000
     52 HBK        -11.2290     4.5170    35.3750 ha         1 0AN       0.120000
     53 HBL         -9.4910     3.0880    34.3050 ha         1 0AN       0.122000
     54 HA         -11.2050     0.8650    27.9930 h1         1 0AN       0.111700
     55 HB2         -9.7020    -1.1220    28.1080 hc         1 0AN       0.065700
     56 HB1         -9.5390    -0.1770    26.6380 hc         1 0AN       0.065700
     57 HAA         -7.6600    -0.0520    29.0510 hc         1 0AN       0.048200
     58 HAB         -7.2940    -0.7710    27.5030 hc         1 0AN       0.048200
     59 HAC         -6.3580     1.5590    27.6860 hc         1 0AN       0.054700
     60 HAD         -7.4820     1.3720    26.3500 hc         1 0AN       0.054700
     61 HAE         -8.0220     3.4050    27.3640 h1         1 0AN       0.069700
     62 HAP        -12.6550     3.6650    28.6620 ha         1 0AN       0.156500
     63 HAR        -11.8780     7.7520    29.7040 ha         1 0AN       0.147000
     64 HAT         -9.4070     5.7950    26.7990 ha         1 0AN       0.156500
@<TRIPOS>BOND
     1     1     2 1   
     2     2     3 ar  
     3     2     7 ar  
     4     3     4 ar  
     5     3    39 1   
     6     4     5 ar  
     7     4    40 1   
     8     5     6 ar  
     9     5    41 1   
    10     6     7 ar  
    11     6    42 1   
    12     7     8 1   
    13     8     9 2   
    14     8    43 1   
    15     9    10 1   
    16     9    44 1   
    17    10    11 1   
    18    10    26 1   
    19    10    45 1   
    20    11    12 1   
    21    11    46 1   
    22    11    47 1   
    23    12    13 1   
    24    12    20 1   
    25    13    14 1   
    26    13    48 1   
    27    13    49 1   
    28    14    15 ar  
    29    14    19 ar  
    30    15    16 ar  
    31    16    17 ar  
    32    16    50 1   
    33    17    18 ar  
    34    17    51 1   
    35    18    19 ar  
    36    18    52 1   
    37    19    53 1   
    38    20    21 2   
    39    20    22 1   
    40    22    23 1   
    41    22    27 1   
    42    22    54 1   
    43    23    24 1   
    44    23    55 1   
    45    23    56 1   
    46    24    25 1   
    47    24    57 1   
    48    24    58 1   
    49    25    26 1   
    50    25    59 1   
    51    25    60 1   
    52    26    27 1   
    53    26    61 1   
    54    27    28 1   
    55    28    29 2   
    56    28    30 2   
    57    28    31 1   
    58    31    32 ar  
    59    31    38 ar  
    60    32    33 ar  
    61    32    62 1   
    62    33    34 1   
    63    33    35 ar  
    64    35    36 ar  
    65    35    63 1   
    66    36    37 1   
    67    36    38 ar  
    68    38    64 1   
@<TRIPOS>SUBSTRUCTURE
     1 0AN         1 TEMP              0 ****  ****    0 ROOT
