@<TRIPOS>MOLECULE
0AN
   64    68     1     0     0
SMALL
No Charge or Current Charge


@<TRIPOS>ATOM
      1 ClBF       -10.0910     7.4790    31.7900 cl         1 0AN      -0.209000
      2 CBA         -8.6910     7.9100    30.8040 ca         1 0AN       0.135000
      3 CBB         -8.2310     9.2370    30.8300 ca         1 0AN      -0.105000
      4 CBC         -7.1090     9.6110    30.0710 ca         1 0AN      -0.095000
      5 CBD         -6.4450     8.6540    29.2880 ca         1 0AN      -0.108000
      6 CBE         -6.9010     7.3250    29.2630 ca         1 0AN      -0.093000
      7 CAZ         -8.0270     6.9410    30.0180 ca         1 0AN      -0.045800
      8 CAW         -8.5280     5.5420    29.9400 ce         1 0AN      -0.158200
      9 CAV         -7.7420     4.4430    29.8810 c2         1 0AN      -0.211200
     10 CAH         -8.2300     3.0100    29.7190 c3         1 0AN      -0.057500
     11 CAI         -9.3760     2.7170    30.7090 c3         1 0AN       0.121000
     12 NAJ         -9.7960     1.3000    30.7830 n          1 0AN      -0.389800
     13 CAX         -9.7560     0.6730    32.1390 c3         1 0AN       0.042700
     14 CBG        -10.4000     1.4610    33.2870 ca         1 0AN       0.317300
     15 NBH        -11.7470     1.3830    33.4170 nb         1 0AN      -0.654000
     16 CBI        -12.3340     2.0700    34.4240 ca         1 0AN       0.341900
     17 CBJ        -11.6090     2.8520    35.3390 ca         1 0AN      -0.162000
     18 CBK        -10.2130     2.9290    35.2160 ca         1 0AN      -0.071000
     19 CBL         -9.6020     2.2170    34.1710 ca         1 0AN      -0.159000
     20 C          -10.7900     0.9040    29.8630 c          1 0AN       0.568000
     21 O          -11.8690     0.4660    30.2510 o          1 0AN      -0.561000
     22 CA         -10.5210     1.1110    28.3320 c6         1 0AN       0.164500
     23 CB          -9.5900    -0.0070    27.7690 c6         1 0AN      -0.082400
     24 CAA         -8.1010     0.1970    28.1140 c6         1 0AN      -0.076400
     25 CAB         -7.6570     1.5890    27.6300 c6         1 0AN      -0.088400
     26 CAC         -8.5560     2.7150    28.2120 c6         1 0AN       0.245500
     27 N          -10.0080     2.4770    27.9240 n3         1 0AN      -0.789500
     28 SAL        -10.6290     3.1260    26.4750 sy         1 0AN       1.190600
     29 OAM         -9.8950     2.5090    25.3660 o          1 0AN      -0.535000
     30 OAN        -12.0880     3.0320    26.5920 o          1 0AN      -0.535000
     31 CAO        -10.2000     4.8700    26.6280 ca         1 0AN      -0.263500
     32 CAP        -10.9990     5.7220    27.4200 ca         1 0AN      -0.008000
     33 CAQ        -10.6540     7.0780    27.5640 ca         1 0AN       0.102500
     34 ClAU       -11.6570     8.1390    28.5440 cl         1 0AN      -0.179500
     35 CAR         -9.5080     7.5870    26.9340 ca         1 0AN      -0.051000
     36 CAS         -8.7100     6.7420    26.1460 ca         1 0AN       0.102500
     37 ClAY        -7.2670     7.3790    25.3680 cl         1 0AN      -0.179500
     38 CAT         -9.0560     5.3900    25.9820 ca         1 0AN      -0.008000
     39 HBB         -8.7450     9.9760    31.4390 ha         1 0AN       0.130000
     40 HBC         -6.7560    10.6400    30.0900 ha         1 0AN       0.121000
     41 HBD         -5.5780     8.9420    28.6960 ha         1 0AN       0.120000
     42 HBE         -6.3880     6.5970    28.6370 ha         1 0AN       0.116000
     43 HAW         -9.6140     5.4460    29.9150 ha         1 0AN       0.187000
     44 HAV         -6.6550     4.5430    29.9120 ha         1 0AN       0.176000
     45 HAH         -7.4030     2.3620    30.0340 hc         1 0AN       0.073700
     46 HB3         -9.0420     3.0520    31.6980 h1         1 0AN       0.053200
     47 HAI        -10.2510     3.3260    30.4500 h1         1 0AN       0.053200
     48 HAX        -10.2290    -0.3160    32.0900 h1         1 0AN       0.073200
     49 HB4         -8.7030     0.4940    32.3920 h1         1 0AN       0.073200
     50 HBI        -13.4180     1.9900    34.5000 h4         1 0AN       0.022100
     51 HBJ        -12.1280     3.3840    36.1310 ha         1 0AN       0.125000
     52 HBK         -9.6210     3.5230    35.9090 ha         1 0AN       0.120000
     53 HBL         -8.5240     2.2520    34.0430 ha         1 0AN       0.122000
     54 HA         -11.5180     0.9440    27.8970 h1         1 0AN       0.111700
     55 HB2         -9.9250    -0.9860    28.1360 hc         1 0AN       0.065700
     56 HB1         -9.7020    -0.0460    26.6770 hc         1 0AN       0.065700
     57 HAA         -7.9360     0.0900    29.1940 hc         1 0AN       0.048200
     58 HAB         -7.4950    -0.5790    27.6280 hc         1 0AN       0.048200
     59 HAC         -6.6060     1.7640    27.8990 hc         1 0AN       0.054700
     60 HAD         -7.6890     1.6210    26.5340 hc         1 0AN       0.054700
     61 HAE         -8.2290     3.6220    27.6870 h1         1 0AN       0.069700
     62 HAP        -11.8820     5.3400    27.9290 ha         1 0AN       0.156500
     63 HAR         -9.2370     8.6310    27.0590 ha         1 0AN       0.147000
     64 HAT         -8.4250     4.7500    25.3680 ha         1 0AN       0.156500
@<TRIPOS>BOND
     1     1     2 1   
     2     2     3 ar  
     3     2     7 ar  
     4     3     4 ar  
     5     3    39 1   
     6     4     5 ar  
     7     4    40 1   
     8     5     6 ar  
     9     5    41 1   
    10     6     7 ar  
    11     6    42 1   
    12     7     8 1   
    13     8     9 2   
    14     8    43 1   
    15     9    10 1   
    16     9    44 1   
    17    10    11 1   
    18    10    26 1   
    19    10    45 1   
    20    11    12 1   
    21    11    46 1   
    22    11    47 1   
    23    12    13 1   
    24    12    20 1   
    25    13    14 1   
    26    13    48 1   
    27    13    49 1   
    28    14    15 ar  
    29    14    19 ar  
    30    15    16 ar  
    31    16    17 ar  
    32    16    50 1   
    33    17    18 ar  
    34    17    51 1   
    35    18    19 ar  
    36    18    52 1   
    37    19    53 1   
    38    20    21 2   
    39    20    22 1   
    40    22    23 1   
    41    22    27 1   
    42    22    54 1   
    43    23    24 1   
    44    23    55 1   
    45    23    56 1   
    46    24    25 1   
    47    24    57 1   
    48    24    58 1   
    49    25    26 1   
    50    25    59 1   
    51    25    60 1   
    52    26    27 1   
    53    26    61 1   
    54    27    28 1   
    55    28    29 2   
    56    28    30 2   
    57    28    31 1   
    58    31    32 ar  
    59    31    38 ar  
    60    32    33 ar  
    61    32    62 1   
    62    33    34 1   
    63    33    35 ar  
    64    35    36 ar  
    65    35    63 1   
    66    36    37 1   
    67    36    38 ar  
    68    38    64 1   
@<TRIPOS>SUBSTRUCTURE
     1 0AN         1 TEMP              0 ****  ****    0 ROOT
