@<TRIPOS>MOLECULE
0AO
   28    29     1     0     0
SMALL
No Charge or Current Charge


@<TRIPOS>ATOM
      1 N1           2.0440     0.5960     1.3070 n8         1 0AO      -0.987200
      2 C1           2.5010    -0.4890     0.3700 c3         1 0AO       0.050500
      3 C2           3.9840    -0.4020    -0.1330 c          1 0AO       0.571900
      4 C3           1.5210    -0.6360    -0.8240 c3         1 0AO      -0.070100
      5 C4           0.0650    -0.8740    -0.3990 ca         1 0AO      -0.075300
      6 C5          -0.3060    -2.2000    -0.0940 ca         1 0AO      -0.103000
      7 C6          -1.6150    -2.5140     0.2970 ca         1 0AO      -0.106000
      8 C7          -2.5780    -1.5030     0.3910 ca         1 0AO      -0.095000
      9 C8          -2.2350    -0.1710     0.0960 ca         1 0AO      -0.037000
     10 C9          -3.2220     0.8280     0.2000 ca         1 0AO      -0.096000
     11 C10         -2.9080     2.1650    -0.0840 ca         1 0AO      -0.106000
     12 C11         -1.6050     2.5070    -0.4720 ca         1 0AO      -0.101000
     13 C12         -0.6140     1.5160    -0.5800 ca         1 0AO      -0.112000
     14 C13         -0.9130     0.1590    -0.3010 ca         1 0AO      -0.029000
     15 HN1          2.1950     1.5120     0.8660 hn         1 0AO       0.410000
     16 HN2          1.0210     0.5400     1.3960 hn         1 0AO       0.410000
     17 HXT          0.4300    -2.9990    -0.1620 ha         1 0AO       0.111000
     18 H2          -1.8820    -3.5430     0.5270 ha         1 0AO       0.116000
     19 H3          -4.2340     0.5700     0.5030 ha         1 0AO       0.115000
     20 H5          -3.6730     2.9350    -0.0010 ha         1 0AO       0.116000
     21 H6          -1.3600     3.5450    -0.6900 ha         1 0AO       0.115000
     22 H7           0.3800     1.8310    -0.8780 ha         1 0AO       0.111000
     23 O1           4.6900     0.5990    -0.0340 o          1 0AO      -0.493100
     24 H8           2.4490    -1.4350     0.9300 h1         1 0AO       0.078700
     25 H10          4.3790    -1.3320    -0.6000 h4         1 0AO      -0.018800
     26 H11          1.6220     0.2210    -1.4990 hc         1 0AO       0.054700
     27 H12          1.8530    -1.4900    -1.4280 hc         1 0AO       0.054700
     28 H13         -3.5920    -1.7550     0.6940 ha         1 0AO       0.116000
@<TRIPOS>BOND
     1     1     2 1   
     2     1    15 1   
     3     1    16 1   
     4     2     3 1   
     5     2     4 1   
     6     2    24 1   
     7     3    23 2   
     8     3    25 1   
     9     4     5 1   
    10     4    26 1   
    11     4    27 1   
    12     5     6 ar  
    13     5    14 ar  
    14     6     7 ar  
    15     6    17 1   
    16     7     8 ar  
    17     7    18 1   
    18     8     9 ar  
    19     8    28 1   
    20     9    10 ar  
    21     9    14 ar  
    22    10    11 ar  
    23    10    19 1   
    24    11    12 ar  
    25    11    20 1   
    26    12    13 ar  
    27    12    21 1   
    28    13    14 ar  
    29    13    22 1   
@<TRIPOS>SUBSTRUCTURE
     1 0AO         1 TEMP              0 ****  ****    0 ROOT
