@<TRIPOS>MOLECULE
0AO
   28    29     1     0     0
SMALL
abcg2


@<TRIPOS>ATOM
      1 N1           2.0840     0.6710     1.2650 n8         1 0AO      -0.987200
      2 C1           2.4080    -0.4350     0.4040 c3         1 0AO       0.050500
      3 C2           3.8290    -0.3520    -0.0830 c          1 0AO       0.571900
      4 C3           1.5060    -0.6580    -0.8400 c3         1 0AO      -0.070100
      5 C4           0.0760    -0.9170    -0.4540 ca         1 0AO      -0.075300
      6 C5          -0.3040    -2.2050    -0.1610 ca         1 0AO      -0.103000
      7 C6          -1.6090    -2.5170     0.2630 ca         1 0AO      -0.106000
      8 C7          -2.5410    -1.5260     0.3960 ca         1 0AO      -0.095000
      9 C8          -2.2040    -0.1860     0.1010 ca         1 0AO      -0.037000
     10 C9          -3.1620     0.8480     0.2320 ca         1 0AO      -0.096000
     11 C10         -2.8420     2.1450    -0.0550 ca         1 0AO      -0.106000
     12 C11         -1.5410     2.4640    -0.4960 ca         1 0AO      -0.101000
     13 C12         -0.5940     1.4860    -0.6300 ca         1 0AO      -0.112000
     14 C13         -0.8850     0.1300    -0.3330 ca         1 0AO      -0.029000
     15 HN1          2.0970     1.5460     0.7560 hn         1 0AO       0.410000
     16 HN2          1.1510     0.5630     1.6410 hn         1 0AO       0.410000
     17 HXT          0.4200    -3.0050    -0.2570 ha         1 0AO       0.111000
     18 H2          -1.8680    -3.5440     0.4820 ha         1 0AO       0.116000
     19 H3          -4.1600     0.5910     0.5660 ha         1 0AO       0.115000
     20 H5          -3.5810     2.9280     0.0500 ha         1 0AO       0.116000
     21 H6          -1.2900     3.4900    -0.7290 ha         1 0AO       0.115000
     22 H7           0.3930     1.7650    -0.9740 ha         1 0AO       0.111000
     23 O1           4.5740     0.5720     0.1190 o          1 0AO      -0.493100
     24 H8           2.3550    -1.3600     0.9930 h1         1 0AO       0.078700
     25 H10          4.1520    -1.2270    -0.6760 h4         1 0AO      -0.018800
     26 H11          1.5970     0.1950    -1.5160 hc         1 0AO       0.054700
     27 H12          1.8840    -1.5230    -1.3890 hc         1 0AO       0.054700
     28 H13         -3.5480    -1.7560     0.7230 ha         1 0AO       0.116000
@<TRIPOS>BOND
     1     1     2 1   
     2     1    15 1   
     3     1    16 1   
     4     2     3 1   
     5     2     4 1   
     6     2    24 1   
     7     3    23 2   
     8     3    25 1   
     9     4     5 1   
    10     4    26 1   
    11     4    27 1   
    12     5     6 ar  
    13     5    14 ar  
    14     6     7 ar  
    15     6    17 1   
    16     7     8 ar  
    17     7    18 1   
    18     8     9 ar  
    19     8    28 1   
    20     9    10 ar  
    21     9    14 ar  
    22    10    11 ar  
    23    10    19 1   
    24    11    12 ar  
    25    11    20 1   
    26    12    13 ar  
    27    12    21 1   
    28    13    14 ar  
    29    13    22 1   
@<TRIPOS>SUBSTRUCTURE
     1 0AO         1 TEMP              0 ****  ****    0 ROOT
