@<TRIPOS>MOLECULE
0AS
   82    86     1     0     0
SMALL
abcg2


@<TRIPOS>ATOM
      1 O3           6.5270     1.0210     0.3170 oh         1 0AS      -0.646000
      2 C3           5.1220     0.9390     0.2820 c6         1 0AS       0.186300
      3 C2           4.6030     1.4140    -1.0670 c6         1 0AS       0.126300
      4 O2           5.1210     2.7260    -1.2510 oh         1 0AS      -0.683000
      5 C1           3.0860     1.4180    -1.0930 c6         1 0AS      -0.102400
      6 C10          2.4730     0.0400    -0.7940 c6         1 0AS      -0.016000
      7 C25          2.7310    -0.8550    -2.0210 c3         1 0AS      -0.080100
      8 C9           0.9560     0.2760    -0.4870 c6         1 0AS      -0.045700
      9 C11          0.1850     0.9060    -1.6470 c6         1 0AS      -0.023200
     10 C12         -1.2940     0.9400    -1.4380 c2         1 0AS      -0.255200
     11 C13         -1.9590     0.4000    -0.4190 c2         1 0AS      -0.038400
     12 C18         -3.4660     0.5630    -0.3460 c6         1 0AS       0.002500
     13 C19         -3.9140     1.7940     0.4930 c6         1 0AS      -0.050700
     14 C29         -3.2670     3.0760    -0.0220 c3         1 0AS      -0.087100
     15 C20         -5.4460     1.9130     0.5110 c6         1 0AS      -0.057700
     16 C30         -5.9480     3.0980     1.3310 c3         1 0AS      -0.083100
     17 C21         -6.0720     0.6250     1.0330 c6         1 0AS      -0.071400
     18 C22         -5.6530    -0.5750     0.2050 c6         1 0AS      -0.055400
     19 C17         -4.1290    -0.7530     0.1000 c6         1 0AS      -0.170000
     20 C28         -3.9460    -1.8790    -0.9600 c          1 0AS       0.721000
     21 O29         -4.0510    -3.0550    -0.5490 o          1 0AS      -0.731000
     22 O28         -3.7930    -1.5410    -2.1500 o          1 0AS      -0.731000
     23 C16         -3.5260    -1.1620     1.4420 c6         1 0AS      -0.039400
     24 C15         -2.0400    -1.4680     1.3080 c6         1 0AS      -0.065400
     25 C14         -1.2020    -0.3270     0.6900 c6         1 0AS       0.009200
     26 C27         -0.9640     0.6960     1.8240 c3         1 0AS      -0.082100
     27 C8           0.1490    -0.9070     0.1030 c6         1 0AS      -0.014000
     28 C26         -0.1590    -1.9510    -0.9860 c3         1 0AS      -0.094100
     29 C7           0.9590    -1.6010     1.2090 c6         1 0AS      -0.072400
     30 C6           2.4240    -1.8390     0.8630 c6         1 0AS      -0.068400
     31 C5           3.0990    -0.5080     0.5190 c6         1 0AS      -0.055700
     32 C4           4.6540    -0.4860     0.6420 c6         1 0AS      -0.027000
     33 C24          5.3520    -1.5550    -0.1980 c3         1 0AS      -0.073100
     34 C23          4.9650    -0.7380     2.1320 c3         1 0AS       0.166600
     35 O23          6.3460    -0.8280     2.3920 oh         1 0AS      -0.642000
     36 HO3          6.7610     1.8660    -0.0840 ho         1 0AS       0.447000
     37 H3           4.6790     1.6120     1.0400 h1         1 0AS       0.034700
     38 H2           5.0000     0.7590    -1.8520 h1         1 0AS       0.042700
     39 HO2          5.0810     2.9410    -2.1870 ho         1 0AS       0.443000
     40 H11          2.7380     2.1460    -0.3490 hc         1 0AS       0.048200
     41 H12A         2.7480     1.7810    -2.0680 hc         1 0AS       0.048200
     42 H251         2.0090    -0.6560    -2.8120 hc         1 0AS       0.033033
     43 H252         3.7100    -0.6700    -2.4590 hc         1 0AS       0.033033
     44 H253         2.6850    -1.9200    -1.8090 hc         1 0AS       0.033033
     45 H9           0.9970     1.0350     0.3020 hc         1 0AS       0.036700
     46 H111         0.5350     1.9300    -1.8140 hc         1 0AS       0.030200
     47 H112         0.3880     0.3830    -2.5890 hc         1 0AS       0.030200
     48 H12         -1.8610     1.4570    -2.2080 ha         1 0AS       0.169000
     49 H18         -3.8060     0.7670    -1.3680 hc         1 0AS       0.071700
     50 H19         -3.5960     1.6620     1.5340 hc         1 0AS       0.037700
     51 H291        -3.5820     3.2870    -1.0490 hc         1 0AS       0.023367
     52 H292        -3.5340     3.9370     0.5910 hc         1 0AS       0.023367
     53 H293        -2.1810     3.0020    -0.0230 hc         1 0AS       0.023367
     54 H20         -5.7790     2.0530    -0.5290 hc         1 0AS       0.044700
     55 H301        -5.6330     4.0590     0.9260 hc         1 0AS       0.020033
     56 H302        -7.0390     3.1030     1.3630 hc         1 0AS       0.020033
     57 H303        -5.5920     3.0360     2.3630 hc         1 0AS       0.020033
     58 H211        -5.7900     0.4880     2.0830 hc         1 0AS       0.019700
     59 H212        -7.1630     0.7140     1.0230 hc         1 0AS       0.019700
     60 H221        -6.0970    -1.4910     0.6050 hc         1 0AS       0.045700
     61 H222        -6.0590    -0.4480    -0.8060 hc         1 0AS       0.045700
     62 H161        -3.6850    -0.3740     2.1850 hc         1 0AS       0.023200
     63 H162        -4.0390    -2.0460     1.8260 hc         1 0AS       0.023200
     64 H151        -1.6230    -1.7120     2.2900 hc         1 0AS       0.042700
     65 H152        -1.9600    -2.3730     0.7110 hc         1 0AS       0.042700
     66 H271        -1.9110     0.9990     2.2660 hc         1 0AS       0.024367
     67 H272        -0.3650     0.2770     2.6340 hc         1 0AS       0.024367
     68 H273        -0.4760     1.6070     1.4820 hc         1 0AS       0.024367
     69 H261        -0.6560    -2.8280    -0.5710 hc         1 0AS       0.045700
     70 H262        -0.8120    -1.5600    -1.7640 hc         1 0AS       0.045700
     71 H263         0.7480    -2.3180    -1.4620 hc         1 0AS       0.045700
     72 H71          0.9520    -0.9980     2.1200 hc         1 0AS       0.039200
     73 H72          0.4820    -2.5500     1.4680 hc         1 0AS       0.039200
     74 H61          2.8880    -2.3240     1.7220 hc         1 0AS       0.035700
     75 H62          2.5250    -2.5530     0.0430 hc         1 0AS       0.035700
     76 H5           2.7710     0.2030     1.2960 hc         1 0AS       0.041700
     77 H241         5.2030    -1.4150    -1.2660 hc         1 0AS       0.037367
     78 H242         6.4250    -1.5580    -0.0200 hc         1 0AS       0.037367
     79 H243         4.9750    -2.5470     0.0550 hc         1 0AS       0.037367
     80 H231         4.5050     0.0700     2.7220 h1         1 0AS       0.016700
     81 H232         4.4740    -1.6660     2.4400 h1         1 0AS       0.016700
     82 HO23         6.4500    -1.3020     3.2210 ho         1 0AS       0.428000
@<TRIPOS>BOND
     1     1     2 1   
     2     1    36 1   
     3     2     3 1   
     4     2    32 1   
     5     2    37 1   
     6     3     4 1   
     7     3     5 1   
     8     3    38 1   
     9     4    39 1   
    10     5     6 1   
    11     5    40 1   
    12     5    41 1   
    13     6     7 1   
    14     6     8 1   
    15     6    31 1   
    16     7    42 1   
    17     7    43 1   
    18     7    44 1   
    19     8     9 1   
    20     8    27 1   
    21     8    45 1   
    22     9    10 1   
    23     9    46 1   
    24     9    47 1   
    25    10    11 2   
    26    10    48 1   
    27    11    12 1   
    28    11    25 1   
    29    12    13 1   
    30    12    19 1   
    31    12    49 1   
    32    13    14 1   
    33    13    15 1   
    34    13    50 1   
    35    14    51 1   
    36    14    52 1   
    37    14    53 1   
    38    15    16 1   
    39    15    17 1   
    40    15    54 1   
    41    16    55 1   
    42    16    56 1   
    43    16    57 1   
    44    17    18 1   
    45    17    58 1   
    46    17    59 1   
    47    18    19 1   
    48    18    60 1   
    49    18    61 1   
    50    19    20 1   
    51    19    23 1   
    52    20    21 1   
    53    20    22 1   
    54    23    24 1   
    55    23    62 1   
    56    23    63 1   
    57    24    25 1   
    58    24    64 1   
    59    24    65 1   
    60    25    26 1   
    61    25    27 1   
    62    26    66 1   
    63    26    67 1   
    64    26    68 1   
    65    27    28 1   
    66    27    29 1   
    67    28    69 1   
    68    28    70 1   
    69    28    71 1   
    70    29    30 1   
    71    29    72 1   
    72    29    73 1   
    73    30    31 1   
    74    30    74 1   
    75    30    75 1   
    76    31    32 1   
    77    31    76 1   
    78    32    33 1   
    79    32    34 1   
    80    33    77 1   
    81    33    78 1   
    82    33    79 1   
    83    34    35 1   
    84    34    80 1   
    85    34    81 1   
    86    35    82 1   
@<TRIPOS>SUBSTRUCTURE
     1 0AS         1 TEMP              0 ****  ****    0 ROOT
