@<TRIPOS>MOLECULE
0AS
   82    86     1     0     0
SMALL
No Charge or Current Charge


@<TRIPOS>ATOM
      1 O3           6.8380     0.8200     0.0880 oh         1 0AS      -0.646000
      2 C3           5.4120     0.7940     0.2410 c6         1 0AS       0.186300
      3 C2           4.8120     1.4180    -1.0540 c6         1 0AS       0.126300
      4 O2           5.3660     2.7300    -1.2630 oh         1 0AS      -0.683000
      5 C1           3.2680     1.5170    -0.9680 c6         1 0AS      -0.102400
      6 C10          2.5600     0.1420    -0.7140 c6         1 0AS      -0.016000
      7 C25          2.7330    -0.7560    -2.0070 c3         1 0AS      -0.080100
      8 C9           1.0040     0.4600    -0.4030 c6         1 0AS      -0.045700
      9 C11          0.2020     1.1760    -1.5360 c6         1 0AS      -0.023200
     10 C12         -1.3140     1.0860    -1.3890 c2         1 0AS      -0.255200
     11 C13         -1.9970     0.4690    -0.4010 c2         1 0AS      -0.038400
     12 C18         -3.5430     0.5670    -0.4060 c6         1 0AS       0.002500
     13 C19         -4.0590     1.8390     0.3760 c6         1 0AS      -0.050700
     14 C29         -3.4800     3.1670    -0.1980 c3         1 0AS      -0.087100
     15 C20         -5.6660     1.8660     0.4210 c6         1 0AS      -0.057700
     16 C30         -6.3150     3.0720     1.2070 c3         1 0AS      -0.083100
     17 C21         -6.2870     0.5290     0.9640 c6         1 0AS      -0.071400
     18 C22         -5.7610    -0.6740     0.1560 c6         1 0AS      -0.055400
     19 C17         -4.2000    -0.8030     0.1100 c6         1 0AS      -0.170000
     20 C28         -3.9110    -1.9780    -0.9010 c          1 0AS       0.721000
     21 O29         -4.0660    -3.1290    -0.5140 o          1 0AS      -0.731000
     22 O28         -3.6720    -1.7160    -2.0720 o          1 0AS      -0.731000
     23 C16         -3.6340    -1.1740     1.5480 c6         1 0AS      -0.039400
     24 C15         -2.1080    -1.4120     1.4660 c6         1 0AS      -0.065400
     25 C14         -1.2720    -0.2560     0.7790 c6         1 0AS       0.009200
     26 C27         -1.0770     0.8690     1.8670 c3         1 0AS      -0.082100
     27 C8           0.1570    -0.8090     0.2040 c6         1 0AS      -0.014000
     28 C26         -0.1270    -1.9330    -0.9080 c3         1 0AS      -0.094100
     29 C7           0.9850    -1.5370     1.3590 c6         1 0AS      -0.072400
     30 C6           2.4660    -1.8260     0.9880 c6         1 0AS      -0.068400
     31 C5           3.2470    -0.5230     0.5860 c6         1 0AS      -0.055700
     32 C4           4.8390    -0.6420     0.5720 c6         1 0AS      -0.027000
     33 C24          5.3800    -1.7340    -0.4160 c3         1 0AS      -0.073100
     34 C23          5.3270    -1.0790     2.0400 c3         1 0AS       0.166600
     35 O23          6.7560    -1.1520     2.3030 oh         1 0AS      -0.642000
     36 HO3          6.9930     1.6520    -0.4140 ho         1 0AS       0.447000
     37 H3           5.1330     1.4560     1.0750 h1         1 0AS       0.034700
     38 H2           5.0920     0.7840    -1.9050 h1         1 0AS       0.042700
     39 HO2          4.9210     3.1050    -2.0550 ho         1 0AS       0.443000
     40 H11          3.0110     2.2230    -0.1660 hc         1 0AS       0.048200
     41 H12A         2.8870     1.9650    -1.8960 hc         1 0AS       0.048200
     42 H251         1.8610    -0.7510    -2.6630 hc         1 0AS       0.033033
     43 H252         3.5600    -0.4360    -2.6460 hc         1 0AS       0.033033
     44 H253         2.9230    -1.8070    -1.7760 hc         1 0AS       0.033033
     45 H9           1.0530     1.1900     0.4120 hc         1 0AS       0.036700
     46 H111         0.4870     2.2360    -1.5650 hc         1 0AS       0.030200
     47 H112         0.4510     0.7830    -2.5270 hc         1 0AS       0.030200
     48 H12         -1.8690     1.5980    -2.1750 ha         1 0AS       0.169000
     49 H18         -3.8710     0.7190    -1.4430 hc         1 0AS       0.071700
     50 H19         -3.7210     1.7960     1.4150 hc         1 0AS       0.037700
     51 H291        -3.7580     3.2980    -1.2500 hc         1 0AS       0.023367
     52 H292        -3.8370     4.0410     0.3570 hc         1 0AS       0.023367
     53 H293        -2.3870     3.1950    -0.1310 hc         1 0AS       0.023367
     54 H20         -6.0160     1.9850    -0.6140 hc         1 0AS       0.044700
     55 H301        -6.0810     4.0340     0.7390 hc         1 0AS       0.020033
     56 H302        -7.4090     2.9890     1.2330 hc         1 0AS       0.020033
     57 H303        -5.9570     3.1040     2.2430 hc         1 0AS       0.020033
     58 H211        -6.0480     0.4080     2.0290 hc         1 0AS       0.019700
     59 H212        -7.3830     0.5630     0.8930 hc         1 0AS       0.019700
     60 H221        -6.2000    -1.5960     0.5620 hc         1 0AS       0.045700
     61 H222        -6.1440    -0.5940    -0.8710 hc         1 0AS       0.045700
     62 H161        -3.8450    -0.3770     2.2710 hc         1 0AS       0.023200
     63 H162        -4.1270    -2.0720     1.9430 hc         1 0AS       0.023200
     64 H151        -1.7280    -1.5810     2.4830 hc         1 0AS       0.042700
     65 H152        -1.9680    -2.3740     0.9740 hc         1 0AS       0.042700
     66 H271        -1.9920     1.0500     2.4370 hc         1 0AS       0.024367
     67 H272        -0.3260     0.6270     2.6220 hc         1 0AS       0.024367
     68 H273        -0.7950     1.8330     1.4270 hc         1 0AS       0.024367
     69 H261        -0.6340    -2.8190    -0.5220 hc         1 0AS       0.045700
     70 H262        -0.7290    -1.5530    -1.7400 hc         1 0AS       0.045700
     71 H263         0.7890    -2.3330    -1.3420 hc         1 0AS       0.045700
     72 H71          1.0030    -0.9400     2.2750 hc         1 0AS       0.039200
     73 H72          0.4990    -2.4820     1.6390 hc         1 0AS       0.039200
     74 H61          2.9130    -2.2920     1.8710 hc         1 0AS       0.035700
     75 H62          2.5200    -2.5930     0.2080 hc         1 0AS       0.035700
     76 H5           3.0410     0.1840     1.4030 hc         1 0AS       0.041700
     77 H241         5.2560    -1.4570    -1.4660 hc         1 0AS       0.037367
     78 H242         6.4540    -1.9020    -0.2780 hc         1 0AS       0.037367
     79 H243         4.8870    -2.7000    -0.2620 hc         1 0AS       0.037367
     80 H231         4.8680    -0.3860     2.7580 h1         1 0AS       0.016700
     81 H232         4.9120    -2.0690     2.2560 h1         1 0AS       0.016700
     82 HO23         6.8610    -1.4060     3.2450 ho         1 0AS       0.428000
@<TRIPOS>BOND
     1     1     2 1   
     2     1    36 1   
     3     2     3 1   
     4     2    32 1   
     5     2    37 1   
     6     3     4 1   
     7     3     5 1   
     8     3    38 1   
     9     4    39 1   
    10     5     6 1   
    11     5    40 1   
    12     5    41 1   
    13     6     7 1   
    14     6     8 1   
    15     6    31 1   
    16     7    42 1   
    17     7    43 1   
    18     7    44 1   
    19     8     9 1   
    20     8    27 1   
    21     8    45 1   
    22     9    10 1   
    23     9    46 1   
    24     9    47 1   
    25    10    11 2   
    26    10    48 1   
    27    11    12 1   
    28    11    25 1   
    29    12    13 1   
    30    12    19 1   
    31    12    49 1   
    32    13    14 1   
    33    13    15 1   
    34    13    50 1   
    35    14    51 1   
    36    14    52 1   
    37    14    53 1   
    38    15    16 1   
    39    15    17 1   
    40    15    54 1   
    41    16    55 1   
    42    16    56 1   
    43    16    57 1   
    44    17    18 1   
    45    17    58 1   
    46    17    59 1   
    47    18    19 1   
    48    18    60 1   
    49    18    61 1   
    50    19    20 1   
    51    19    23 1   
    52    20    21 1   
    53    20    22 1   
    54    23    24 1   
    55    23    62 1   
    56    23    63 1   
    57    24    25 1   
    58    24    64 1   
    59    24    65 1   
    60    25    26 1   
    61    25    27 1   
    62    26    66 1   
    63    26    67 1   
    64    26    68 1   
    65    27    28 1   
    66    27    29 1   
    67    28    69 1   
    68    28    70 1   
    69    28    71 1   
    70    29    30 1   
    71    29    72 1   
    72    29    73 1   
    73    30    31 1   
    74    30    74 1   
    75    30    75 1   
    76    31    32 1   
    77    31    76 1   
    78    32    33 1   
    79    32    34 1   
    80    33    77 1   
    81    33    78 1   
    82    33    79 1   
    83    34    35 1   
    84    34    80 1   
    85    34    81 1   
    86    35    82 1   
@<TRIPOS>SUBSTRUCTURE
     1 0AS         1 TEMP              0 ****  ****    0 ROOT
