@<TRIPOS>MOLECULE
0AW
   46    49     1     0     0
SMALL
No Charge or Current Charge


@<TRIPOS>ATOM
      1 C10        -43.4860   -19.5870   -22.8740 ca         1 0AW      -0.106000
      2 C13        -40.3960   -23.6330   -21.4170 cc         1 0AW      -0.224300
      3 C17        -39.7240   -23.3740   -16.8050 ca         1 0AW      -0.191600
      4 C20        -39.5100   -19.8640   -15.2010 c5         1 0AW      -0.049100
      5 C21        -39.0770   -19.9450   -13.6890 c5         1 0AW       0.148600
      6 C24        -38.6240   -23.3980   -14.6040 ca         1 0AW      -0.147000
      7 C02        -37.3280   -24.1800   -23.8270 ce         1 0AW       0.691800
      8 C04        -38.5200   -23.8100   -23.0950 cc         1 0AW      -0.336900
      9 C05        -39.4350   -22.8220   -23.3710 cd         1 0AW      -0.095000
     10 C06        -40.5210   -22.7110   -22.4460 cd         1 0AW      -0.060000
     11 C07        -41.5480   -21.6420   -22.5680 ca         1 0AW      -0.019000
     12 C08        -41.8630   -21.1190   -23.8450 ca         1 0AW      -0.100500
     13 C09        -42.8260   -20.1060   -23.9970 ca         1 0AW      -0.110000
     14 C11        -43.1760   -20.0800   -21.5990 ca         1 0AW      -0.110000
     15 C12        -42.2150   -21.0950   -21.4470 ca         1 0AW      -0.100500
     16 C16        -40.1920   -24.1400   -18.0230 c          1 0AW       0.614700
     17 C18        -39.9050   -21.9700   -16.6820 ca         1 0AW      -0.031000
     18 C19        -39.4480   -21.3220   -15.5250 ca         1 0AW      -0.183300
     19 C23        -38.8320   -22.0190   -14.5160 ca         1 0AW       0.151100
     20 C25        -39.0770   -24.0760   -15.7530 ca         1 0AW      -0.018000
     21 N01        -36.7730   -23.2880   -24.6540 nv         1 0AW      -1.037200
     22 N03        -36.8760   -25.3610   -23.8370 n2         1 0AW      -0.843100
     23 N15        -40.8190   -23.4090   -19.0060 ns         1 0AW      -0.504900
     24 O22        -38.4300   -21.2450   -13.4640 os         1 0AW      -0.335100
     25 O26        -40.0220   -25.3460   -18.1340 o          1 0AW      -0.611100
     26 S27        -38.9900   -24.6710   -21.6420 ss         1 0AW       0.289000
     27 H101       -44.2300   -18.8020   -22.9910 ha         1 0AW       0.115000
     28 H202       -38.8040   -19.2760   -15.7970 hc         1 0AW       0.064200
     29 H201       -40.5090   -19.4310   -15.3250 hc         1 0AW       0.064200
     30 H212       -38.3960   -19.1340   -13.4000 h1         1 0AW       0.062700
     31 H211       -39.9610   -19.8930   -13.0390 h1         1 0AW       0.062700
     32 H241       -38.1260   -23.9330   -13.8010 ha         1 0AW       0.138000
     33 H051       -39.3240   -22.1640   -24.2270 ha         1 0AW       0.140000
     34 H081       -41.3850   -21.5140   -24.7360 ha         1 0AW       0.112500
     35 H091       -43.0620   -19.7260   -24.9890 ha         1 0AW       0.114000
     36 H111       -43.6720   -19.6690   -20.7230 ha         1 0AW       0.114000
     37 H121       -41.9680   -21.4130   -20.4430 ha         1 0AW       0.112500
     38 H141       -42.3250   -23.5720   -20.4660 h1         1 0AW       0.075200
     39 H142       -41.4150   -25.0470   -20.1860 h1         1 0AW       0.075200
     40 H181       -40.3840   -21.3800   -17.4590 ha         1 0AW       0.112000
     41 H251       -38.9210   -25.1510   -15.8240 ha         1 0AW       0.141000
     42 H011       -35.8400   -23.5400   -24.9550 hn         1 0AW       0.473500
     43 H031       -37.5260   -25.9490   -23.3040 hn         1 0AW       0.387400
     44 H151       -40.9100   -22.4170   -18.8470 hn         1 0AW       0.314500
     45 H1         -36.9130   -22.3190   -24.4000 hn         1 0AW       0.473500
     46 C14        -41.3160   -23.9560   -20.2700 c3         1 0AW       0.170300
@<TRIPOS>BOND
     1     1    13 ar  
     2     1    14 ar  
     3     1    27 1   
     4     2    10 2   
     5     2    26 1   
     6     2    46 1   
     7     3    16 1   
     8     3    17 ar  
     9     3    20 ar  
    10     4     5 1   
    11     4    18 1   
    12     4    28 1   
    13     4    29 1   
    14     5    24 1   
    15     5    30 1   
    16     5    31 1   
    17     6    19 ar  
    18     6    20 ar  
    19     6    32 1   
    20     7     8 1   
    21     7    21 1   
    22     7    22 2   
    23     8     9 2   
    24     8    26 1   
    25     9    10 1   
    26     9    33 1   
    27    10    11 1   
    28    11    12 ar  
    29    11    15 ar  
    30    12    13 ar  
    31    12    34 1   
    32    13    35 1   
    33    14    15 ar  
    34    14    36 1   
    35    15    37 1   
    36    16    23 1   
    37    16    25 2   
    38    17    18 ar  
    39    17    40 1   
    40    18    19 ar  
    41    19    24 1   
    42    20    41 1   
    43    21    42 1   
    44    21    45 1   
    45    22    43 1   
    46    23    44 1   
    47    23    46 1   
    48    38    46 1   
    49    39    46 1   
@<TRIPOS>SUBSTRUCTURE
     1 0AW         1 TEMP              0 ****  ****    0 ROOT
