@<TRIPOS>MOLECULE
0AW
   46    49     1     0     0
SMALL
abcg2


@<TRIPOS>ATOM
      1 C10        -43.3700   -19.5760   -23.2520 ca         1 0AW      -0.106000
      2 C13        -40.4060   -23.4540   -21.4130 cc         1 0AW      -0.224300
      3 C17        -39.6460   -23.1390   -16.8950 ca         1 0AW      -0.191600
      4 C20        -40.0810   -20.1800   -14.4440 c5         1 0AW      -0.049100
      5 C21        -39.2500   -20.3420   -13.1560 c5         1 0AW       0.148600
      6 C24        -38.0960   -23.2310   -15.0180 ca         1 0AW      -0.147000
      7 C02        -37.4000   -24.4660   -23.7410 ce         1 0AW       0.691800
      8 C04        -38.5780   -23.9190   -23.0420 cc         1 0AW      -0.336900
      9 C05        -39.4080   -22.9060   -23.4400 cd         1 0AW      -0.095000
     10 C06        -40.4550   -22.6250   -22.5130 cd         1 0AW      -0.060000
     11 C07        -41.4660   -21.5750   -22.7520 ca         1 0AW      -0.019000
     12 C08        -42.1240   -21.5060   -23.9850 ca         1 0AW      -0.100500
     13 C09        -43.0680   -20.5170   -24.2320 ca         1 0AW      -0.110000
     14 C11        -42.7150   -19.6280   -22.0260 ca         1 0AW      -0.110000
     15 C12        -41.7690   -20.6170   -21.7790 ca         1 0AW      -0.100500
     16 C16        -40.1300   -23.7880   -18.1470 c          1 0AW       0.614700
     17 C18        -40.2050   -21.9550   -16.3850 ca         1 0AW      -0.031000
     18 C19        -39.7160   -21.4260   -15.2100 ca         1 0AW      -0.183300
     19 C23        -38.6740   -22.0640   -14.5390 ca         1 0AW       0.151100
     20 C25        -38.6020   -23.7590   -16.2010 ca         1 0AW      -0.018000
     21 N01        -36.8420   -23.6300   -24.6690 nv         1 0AW      -1.037200
     22 N03        -36.9190   -25.6480   -23.5640 n2         1 0AW      -0.843100
     23 N15        -40.8270   -23.0100   -19.0070 ns         1 0AW      -0.504900
     24 O22        -38.3010   -21.4320   -13.4000 os         1 0AW      -0.335100
     25 O26        -39.9120   -24.9800   -18.3890 o          1 0AW      -0.611100
     26 S27        -39.0760   -24.5540   -21.5100 ss         1 0AW       0.289000
     27 H101       -44.1050   -18.8050   -23.4440 ha         1 0AW       0.115000
     28 H202       -39.7940   -19.2840   -14.9980 hc         1 0AW       0.064200
     29 H201       -41.1480   -20.1120   -14.2290 hc         1 0AW       0.064200
     30 H212       -38.6690   -19.4600   -12.8970 h1         1 0AW       0.062700
     31 H211       -39.8650   -20.6360   -12.3050 h1         1 0AW       0.062700
     32 H241       -37.2870   -23.7130   -14.4870 ha         1 0AW       0.138000
     33 H051       -39.2860   -22.3660   -24.3690 ha         1 0AW       0.140000
     34 H081       -41.9010   -22.2410   -24.7480 ha         1 0AW       0.112500
     35 H091       -43.5710   -20.4830   -25.1910 ha         1 0AW       0.114000
     36 H111       -42.9330   -18.8930   -21.2610 ha         1 0AW       0.114000
     37 H121       -41.2420   -20.6270   -20.8340 ha         1 0AW       0.112500
     38 H141       -42.2570   -22.9590   -20.5040 h1         1 0AW       0.075200
     39 H142       -41.6580   -24.5610   -20.0840 h1         1 0AW       0.075200
     40 H181       -41.0310   -21.4660   -16.8850 ha         1 0AW       0.112000
     41 H251       -38.1840   -24.6710   -16.6020 ha         1 0AW       0.141000
     42 H011       -35.9700   -23.9340   -25.0750 hn         1 0AW       0.473500
     43 H031       -37.4990   -26.1850   -22.9240 hn         1 0AW       0.387400
     44 H151       -40.8640   -22.0160   -18.8570 hn         1 0AW       0.314500
     45 H1         -36.9380   -22.6350   -24.5430 hn         1 0AW       0.473500
     46 C14        -41.3620   -23.5280   -20.2570 c3         1 0AW       0.170300
@<TRIPOS>BOND
     1     1    13 ar  
     2     1    14 ar  
     3     1    27 1   
     4     2    10 2   
     5     2    26 1   
     6     2    46 1   
     7     3    16 1   
     8     3    17 ar  
     9     3    20 ar  
    10     4     5 1   
    11     4    18 1   
    12     4    28 1   
    13     4    29 1   
    14     5    24 1   
    15     5    30 1   
    16     5    31 1   
    17     6    19 ar  
    18     6    20 ar  
    19     6    32 1   
    20     7     8 1   
    21     7    21 1   
    22     7    22 2   
    23     8     9 2   
    24     8    26 1   
    25     9    10 1   
    26     9    33 1   
    27    10    11 1   
    28    11    12 ar  
    29    11    15 ar  
    30    12    13 ar  
    31    12    34 1   
    32    13    35 1   
    33    14    15 ar  
    34    14    36 1   
    35    15    37 1   
    36    16    23 1   
    37    16    25 2   
    38    17    18 ar  
    39    17    40 1   
    40    18    19 ar  
    41    19    24 1   
    42    20    41 1   
    43    21    42 1   
    44    21    45 1   
    45    22    43 1   
    46    23    44 1   
    47    23    46 1   
    48    38    46 1   
    49    39    46 1   
@<TRIPOS>SUBSTRUCTURE
     1 0AW         1 TEMP              0 ****  ****    0 ROOT
