@<TRIPOS>MOLECULE
0AX
   86    90     1     0     0
SMALL
No Charge or Current Charge


@<TRIPOS>ATOM
      1 C02          8.8420    14.6150    22.9190 c          1 0AX       0.576100
      2 C03          7.8010    13.8140    23.7520 c3         1 0AX       0.041700
      3 C04          7.1560    14.7070    24.8510 c3         1 0AX      -0.082400
      4 C05          5.9670    14.0850    25.6490 c6         1 0AX      -0.061700
      5 C06          4.7220    13.8210    24.7510 c6         1 0AX      -0.072400
      6 C07          3.5520    13.2140    25.5640 c6         1 0AX      -0.072900
      7 C08          3.1740    14.1160    26.7630 c6         1 0AX      -0.075400
      8 C09          4.4030    14.3870    27.6640 c6         1 0AX      -0.072900
      9 C10          5.5720    14.9930    26.8480 c6         1 0AX      -0.072400
     10 C13          8.7930    10.3810    25.0850 cc         1 0AX      -0.054100
     11 C14          8.5230     9.0400    25.2880 cd         1 0AX      -0.139200
     12 C15          9.6380     8.4800    25.9800 ca         1 0AX      -0.129800
     13 C16          9.9070     7.1850    26.4380 ca         1 0AX      -0.049000
     14 C17         11.1360     6.9740    27.1000 ca         1 0AX      -0.133000
     15 C18         12.0470     8.0450    27.2820 ca         1 0AX      -0.079000
     16 C19         11.7360     9.3390    26.8040 ca         1 0AX      -0.109000
     17 C20         10.5110     9.5230    26.1510 ca         1 0AX       0.079100
     18 C24          9.0720    16.3480    21.0810 c3         1 0AX       0.070700
     19 C25          8.6000    16.0240    19.6360 c3         1 0AX      -0.085400
     20 C26          8.7910    14.5380    19.1770 c6         1 0AX      -0.140700
     21 C27         10.2940    14.1270    19.2070 c6         1 0AX      -0.078400
     22 C28         10.5600    12.9170    18.2950 c6         1 0AX      -0.090400
     23 C29         10.1800    13.2540    16.8400 c6         1 0AX       0.117000
     24 C31          8.0990    14.3300    17.8020 c          1 0AX       0.571000
     25 C33          9.0200    17.8680    21.4240 c3         1 0AX       0.074300
     26 C35          9.9290    18.6810    20.4560 c          1 0AX       0.601100
     27 C37         12.3230    18.9540    19.7490 c3         1 0AX       0.153300
     28 C38         12.6170    17.8300    18.7650 ca         1 0AX      -0.102300
     29 C39         13.5940    16.8600    19.0640 ca         1 0AX      -0.100000
     30 C40         13.8470    15.8080    18.1670 ca         1 0AX      -0.109000
     31 C41         13.1240    15.7180    16.9660 ca         1 0AX      -0.110000
     32 C42         12.1430    16.6770    16.6650 ca         1 0AX      -0.109000
     33 C43         11.8900    17.7300    17.5620 ca         1 0AX      -0.100000
     34 N11          8.4450    12.6240    24.3500 ns         1 0AX      -0.474900
     35 N23          8.3030    15.5490    22.0540 ns         1 0AX      -0.509900
     36 N30          8.8600    13.8920    16.7430 ns         1 0AX      -0.509900
     37 N36         11.2800    18.5410    20.6820 ns         1 0AX      -0.492900
     38 O01         10.0500    14.4370    23.0110 o          1 0AX      -0.595100
     39 O21         10.0440    10.7110    25.6220 os         1 0AX      -0.192200
     40 O22          6.8140    11.0810    23.9290 o          1 0AX      -0.602100
     41 O32          6.9060    14.5330    17.6440 o          1 0AX      -0.586000
     42 O34          9.3830    18.0680    22.8160 oh         1 0AX      -0.667000
     43 H1           7.0280    13.4890    23.0450 h1         1 0AX       0.079700
     44 H2           7.9500    14.9990    25.5510 hc         1 0AX       0.057200
     45 H3           6.8130    15.6420    24.3900 hc         1 0AX       0.057200
     46 H4           6.3190    13.1260    26.0550 hc         1 0AX       0.052700
     47 H5           4.3950    14.7600    24.2830 hc         1 0AX       0.039200
     48 H6           4.9750    13.1390    23.9300 hc         1 0AX       0.039200
     49 H7           2.6790    13.0750    24.9130 hc         1 0AX       0.041200
     50 H8           3.8330    12.2150    25.9250 hc         1 0AX       0.041200
     51 H9           2.7660    15.0680    26.3960 hc         1 0AX       0.040700
     52 H10          2.3770    13.6410    27.3520 hc         1 0AX       0.040700
     53 H11          4.7290    13.4510    28.1380 hc         1 0AX       0.041200
     54 H12          4.1250    15.0690    28.4790 hc         1 0AX       0.041200
     55 H13          6.4380    15.1400    27.5090 hc         1 0AX       0.039200
     56 H14          5.2870    15.9900    26.4840 hc         1 0AX       0.039200
     57 H15          7.6210     8.5190    24.9720 ha         1 0AX       0.230000
     58 H16          9.1980     6.3730    26.2900 ha         1 0AX       0.123000
     59 H17         11.3860     5.9830    27.4720 ha         1 0AX       0.119000
     60 H18         12.9910     7.8710    27.7940 ha         1 0AX       0.119000
     61 H19         12.4260    10.1680    26.9380 ha         1 0AX       0.133000
     62 H20         10.1270    16.0510    21.1480 h1         1 0AX       0.087700
     63 H21          9.1290    16.6700    18.9240 hc         1 0AX       0.078200
     64 H22          7.5420    16.3040    19.5570 hc         1 0AX       0.078200
     65 H23          8.2200    13.9180    19.8800 hc         1 0AX       0.090700
     66 H24         10.6060    13.8970    20.2340 hc         1 0AX       0.055200
     67 H25         10.9220    14.9660    18.8730 hc         1 0AX       0.055200
     68 H26          9.9750    12.0540    18.6430 hc         1 0AX       0.054200
     69 H27         11.6170    12.6240    18.3460 hc         1 0AX       0.054200
     70 H28         10.1840    12.3410    16.2280 h1         1 0AX       0.037700
     71 H29         10.9210    13.9460    16.4170 h1         1 0AX       0.037700
     72 H30          7.9930    18.2200    21.2570 h1         1 0AX       0.073700
     73 H31         13.2300    19.2010    20.3160 h1         1 0AX       0.062700
     74 H32         12.0080    19.8580    19.2100 h1         1 0AX       0.062700
     75 H33         14.1550    16.9190    19.9940 ha         1 0AX       0.112000
     76 H34         14.6030    15.0620    18.4040 ha         1 0AX       0.112000
     77 H35         13.3210    14.9030    16.2730 ha         1 0AX       0.111000
     78 H36         11.5780    16.6050    15.7390 ha         1 0AX       0.112000
     79 H37         11.1250    18.4660    17.3230 ha         1 0AX       0.112000
     80 H38          9.3780    12.7230    24.7350 hn         1 0AX       0.340500
     81 H39          7.2910    15.6150    22.0320 hn         1 0AX       0.320500
     82 H40          8.3670    13.8170    15.8610 hn         1 0AX       0.314500
     83 H41         11.5410    17.9900    21.4910 hn         1 0AX       0.335500
     84 H42          8.9270    17.3650    23.3300 ho         1 0AX       0.459000
     85 C12          7.9070    11.3580    24.4040 c          1 0AX       0.639300
     86 O44          9.4850    19.3870    19.5590 o          1 0AX      -0.596100
@<TRIPOS>BOND
     1     1     2 1   
     2     1    35 1   
     3     1    38 2   
     4     2     3 1   
     5     2    34 1   
     6     2    43 1   
     7     3     4 1   
     8     3    44 1   
     9     3    45 1   
    10     4     5 1   
    11     4     9 1   
    12     4    46 1   
    13     5     6 1   
    14     5    47 1   
    15     5    48 1   
    16     6     7 1   
    17     6    49 1   
    18     6    50 1   
    19     7     8 1   
    20     7    51 1   
    21     7    52 1   
    22     8     9 1   
    23     8    53 1   
    24     8    54 1   
    25     9    55 1   
    26     9    56 1   
    27    10    11 2   
    28    10    39 1   
    29    10    85 1   
    30    11    12 1   
    31    11    57 1   
    32    12    13 ar  
    33    12    17 ar  
    34    13    14 ar  
    35    13    58 1   
    36    14    15 ar  
    37    14    59 1   
    38    15    16 ar  
    39    15    60 1   
    40    16    17 ar  
    41    16    61 1   
    42    17    39 1   
    43    18    19 1   
    44    18    25 1   
    45    18    35 1   
    46    18    62 1   
    47    19    20 1   
    48    19    63 1   
    49    19    64 1   
    50    20    21 1   
    51    20    24 1   
    52    20    65 1   
    53    21    22 1   
    54    21    66 1   
    55    21    67 1   
    56    22    23 1   
    57    22    68 1   
    58    22    69 1   
    59    23    36 1   
    60    23    70 1   
    61    23    71 1   
    62    24    36 1   
    63    24    41 2   
    64    25    26 1   
    65    25    42 1   
    66    25    72 1   
    67    26    37 1   
    68    26    86 2   
    69    27    28 1   
    70    27    37 1   
    71    27    73 1   
    72    27    74 1   
    73    28    29 ar  
    74    28    33 ar  
    75    29    30 ar  
    76    29    75 1   
    77    30    31 ar  
    78    30    76 1   
    79    31    32 ar  
    80    31    77 1   
    81    32    33 ar  
    82    32    78 1   
    83    33    79 1   
    84    34    80 1   
    85    34    85 1   
    86    35    81 1   
    87    36    82 1   
    88    37    83 1   
    89    40    85 2   
    90    42    84 1   
@<TRIPOS>SUBSTRUCTURE
     1 0AX         1 TEMP              0 ****  ****    0 ROOT
