@<TRIPOS>MOLECULE
0AX
   86    90     1     0     0
SMALL
abcg2


@<TRIPOS>ATOM
      1 C02          8.4660    14.7850    22.8460 c          1 0AX       0.576100
      2 C03          7.5130    14.1020    23.8370 c3         1 0AX       0.041700
      3 C04          7.3360    14.9980    25.0650 c3         1 0AX      -0.082400
      4 C05          6.3130    14.5030    26.0900 c6         1 0AX      -0.061700
      5 C06          4.8910    14.4480    25.5200 c6         1 0AX      -0.072400
      6 C07          3.8670    14.0180    26.5720 c6         1 0AX      -0.072900
      7 C08          3.9190    14.9170    27.8080 c6         1 0AX      -0.075400
      8 C09          5.3330    14.9680    28.3900 c6         1 0AX      -0.072900
      9 C10          6.3530    15.3980    27.3350 c6         1 0AX      -0.072400
     10 C13          8.8470    10.5960    23.7840 cc         1 0AX      -0.054100
     11 C14          9.1340     9.4480    23.1200 cd         1 0AX      -0.139200
     12 C15          9.8460     8.6120    24.0440 ca         1 0AX      -0.129800
     13 C16         10.4120     7.3320    23.9960 ca         1 0AX      -0.049000
     14 C17         11.0380     6.8500    25.1340 ca         1 0AX      -0.133000
     15 C18         11.1080     7.6160    26.3100 ca         1 0AX      -0.079000
     16 C19         10.5550     8.8880    26.3840 ca         1 0AX      -0.109000
     17 C20          9.9340     9.3510    25.2360 ca         1 0AX       0.079100
     18 C24          8.5880    16.0320    20.7180 c3         1 0AX       0.070700
     19 C25          8.3770    15.2290    19.4340 c3         1 0AX      -0.085400
     20 C26          8.9020    13.7940    19.5330 c6         1 0AX      -0.140700
     21 C27         10.4260    13.7260    19.6670 c6         1 0AX      -0.078400
     22 C28         10.9090    12.2860    19.5740 c6         1 0AX      -0.090400
     23 C29         10.5580    11.7180    18.2100 c6         1 0AX       0.117000
     24 C31          8.3630    12.9490    18.3810 c          1 0AX       0.571000
     25 C33          8.1650    17.5150    20.5770 c3         1 0AX       0.074300
     26 C35          9.1150    18.2220    19.6130 c          1 0AX       0.601100
     27 C37         11.2920    19.3290    19.4220 c3         1 0AX       0.153300
     28 C38         12.2140    18.2640    18.8600 ca         1 0AX      -0.102300
     29 C39         12.4150    17.0520    19.5190 ca         1 0AX      -0.100000
     30 C40         13.2900    16.1020    19.0030 ca         1 0AX      -0.109000
     31 C41         13.9810    16.3540    17.8220 ca         1 0AX      -0.110000
     32 C42         13.7850    17.5610    17.1580 ca         1 0AX      -0.109000
     33 C43         12.9050    18.5070    17.6730 ca         1 0AX      -0.100000
     34 N11          8.0460    12.8100    24.2210 ns         1 0AX      -0.474900
     35 N23          7.8580    15.4320    21.8260 ns         1 0AX      -0.509900
     36 N30          9.1600    11.9880    17.8770 ns         1 0AX      -0.509900
     37 N36         10.1810    18.7970    20.1890 ns         1 0AX      -0.492900
     38 O01          9.6800    14.7670    23.0150 o          1 0AX      -0.595100
     39 O21          9.3240    10.5650    25.0790 os         1 0AX      -0.192200
     40 O22          7.7030    11.8800    22.1780 o          1 0AX      -0.602100
     41 O32          7.2110    13.1020    17.9580 o          1 0AX      -0.586000
     42 O34          8.2140    18.1730    21.8350 oh         1 0AX      -0.667000
     43 H1           6.5530    13.9410    23.3470 h1         1 0AX       0.079700
     44 H2           8.3130    15.1120    25.5460 hc         1 0AX       0.057200
     45 H3           7.0390    15.9900    24.7140 hc         1 0AX       0.057200
     46 H4           6.5900    13.4890    26.4020 hc         1 0AX       0.052700
     47 H5           4.6280    15.4440    25.1420 hc         1 0AX       0.039200
     48 H6           4.8480    13.7670    24.6670 hc         1 0AX       0.039200
     49 H7           2.8630    14.0250    26.1390 hc         1 0AX       0.041200
     50 H8           4.0740    12.9840    26.8720 hc         1 0AX       0.041200
     51 H9           3.6080    15.9300    27.5290 hc         1 0AX       0.040700
     52 H10          3.2100    14.5650    28.5630 hc         1 0AX       0.040700
     53 H11          5.6020    13.9740    28.7660 hc         1 0AX       0.041200
     54 H12          5.3690    15.6480    29.2450 hc         1 0AX       0.041200
     55 H13          7.3620    15.3910    27.7580 hc         1 0AX       0.039200
     56 H14          6.1450    16.4310    27.0320 hc         1 0AX       0.039200
     57 H15          8.8730     9.2320    22.0980 ha         1 0AX       0.230000
     58 H16         10.3600     6.7380    23.0930 ha         1 0AX       0.123000
     59 H17         11.4820     5.8630    25.1220 ha         1 0AX       0.119000
     60 H18         11.6050     7.2060    27.1800 ha         1 0AX       0.119000
     61 H19         10.6040     9.4860    27.2840 ha         1 0AX       0.133000
     62 H20          9.6360    16.0200    21.0130 h1         1 0AX       0.087700
     63 H21          8.8730    15.7410    18.6100 hc         1 0AX       0.078200
     64 H22          7.3110    15.2090    19.2040 hc         1 0AX       0.078200
     65 H23          8.4640    13.3230    20.4210 hc         1 0AX       0.090700
     66 H24         10.7270    14.1680    20.6160 hc         1 0AX       0.055200
     67 H25         10.8900    14.3220    18.8750 hc         1 0AX       0.055200
     68 H26         10.4370    11.6870    20.3590 hc         1 0AX       0.054200
     69 H27         11.9890    12.2230    19.7180 hc         1 0AX       0.054200
     70 H28         10.7070    10.6380    18.1830 h1         1 0AX       0.037700
     71 H29         11.2060    12.1610    17.4460 h1         1 0AX       0.037700
     72 H30          7.1590    17.5700    20.1490 h1         1 0AX       0.073700
     73 H31         11.8520    19.9900    20.0860 h1         1 0AX       0.062700
     74 H32         10.9030    19.9380    18.6070 h1         1 0AX       0.062700
     75 H33         11.8770    16.8420    20.4340 ha         1 0AX       0.112000
     76 H34         13.4270    15.1620    19.5240 ha         1 0AX       0.112000
     77 H35         14.6600    15.6130    17.4190 ha         1 0AX       0.111000
     78 H36         14.3110    17.7630    16.2330 ha         1 0AX       0.112000
     79 H37         12.7480    19.4400    17.1450 ha         1 0AX       0.112000
     80 H38          8.5240    12.7250    25.1050 hn         1 0AX       0.340500
     81 H39          6.8680    15.2730    21.6950 hn         1 0AX       0.320500
     82 H40          8.7530    11.4540    17.1220 hn         1 0AX       0.314500
     83 H41         10.2410    18.7580    21.1940 hn         1 0AX       0.335500
     84 H42          7.8500    17.5680    22.4970 ho         1 0AX       0.459000
     85 C12          8.1520    11.8080    23.3250 c          1 0AX       0.639300
     86 O44          8.9200    18.2030    18.3980 o          1 0AX      -0.596100
@<TRIPOS>BOND
     1     1     2 1   
     2     1    35 1   
     3     1    38 2   
     4     2     3 1   
     5     2    34 1   
     6     2    43 1   
     7     3     4 1   
     8     3    44 1   
     9     3    45 1   
    10     4     5 1   
    11     4     9 1   
    12     4    46 1   
    13     5     6 1   
    14     5    47 1   
    15     5    48 1   
    16     6     7 1   
    17     6    49 1   
    18     6    50 1   
    19     7     8 1   
    20     7    51 1   
    21     7    52 1   
    22     8     9 1   
    23     8    53 1   
    24     8    54 1   
    25     9    55 1   
    26     9    56 1   
    27    10    11 2   
    28    10    39 1   
    29    10    85 1   
    30    11    12 1   
    31    11    57 1   
    32    12    13 ar  
    33    12    17 ar  
    34    13    14 ar  
    35    13    58 1   
    36    14    15 ar  
    37    14    59 1   
    38    15    16 ar  
    39    15    60 1   
    40    16    17 ar  
    41    16    61 1   
    42    17    39 1   
    43    18    19 1   
    44    18    25 1   
    45    18    35 1   
    46    18    62 1   
    47    19    20 1   
    48    19    63 1   
    49    19    64 1   
    50    20    21 1   
    51    20    24 1   
    52    20    65 1   
    53    21    22 1   
    54    21    66 1   
    55    21    67 1   
    56    22    23 1   
    57    22    68 1   
    58    22    69 1   
    59    23    36 1   
    60    23    70 1   
    61    23    71 1   
    62    24    36 1   
    63    24    41 2   
    64    25    26 1   
    65    25    42 1   
    66    25    72 1   
    67    26    37 1   
    68    26    86 2   
    69    27    28 1   
    70    27    37 1   
    71    27    73 1   
    72    27    74 1   
    73    28    29 ar  
    74    28    33 ar  
    75    29    30 ar  
    76    29    75 1   
    77    30    31 ar  
    78    30    76 1   
    79    31    32 ar  
    80    31    77 1   
    81    32    33 ar  
    82    32    78 1   
    83    33    79 1   
    84    34    80 1   
    85    34    85 1   
    86    35    81 1   
    87    36    82 1   
    88    37    83 1   
    89    40    85 2   
    90    42    84 1   
@<TRIPOS>SUBSTRUCTURE
     1 0AX         1 TEMP              0 ****  ****    0 ROOT
