@<TRIPOS>MOLECULE
0B0
   55    59     1     0     0
SMALL
No Charge or Current Charge


@<TRIPOS>ATOM
      1 N1          21.7760     6.2680     0.9710 nh         1 0B0      -0.772300
      2 N3          18.0720     5.9420    -0.9630 nb         1 0B0      -0.229000
      3 C4          17.6790     5.5240     2.6250 cc         1 0B0      -0.179100
      4 C5          19.0360     5.7230     2.4440 cd         1 0B0      -0.200200
      5 C6          19.3280     5.9250     1.0440 ca         1 0B0      -0.244800
      6 C7          23.0300     5.9070     0.2470 c6         1 0B0       0.217800
      7 C8          24.1410     5.4950     1.2450 c6         1 0B0      -0.103400
      8 C10         23.0580     6.9460     3.0300 c6         1 0B0       0.078700
      9 C13         22.6530    10.0700     5.8800 c6         1 0B0      -0.078400
     10 C15         23.4150     7.6270     8.7200 ca         1 0B0       0.325000
     11 C17         23.1030     5.9340    10.4480 ca         1 0B0      -0.069500
     12 C20         24.8100     7.4820     8.8400 ca         1 0B0      -0.174000
     13 C21         23.3960     7.6270     5.4530 c          1 0B0       0.526000
     14 C22         21.9710     7.3440     1.9870 c6         1 0B0       0.204800
     15 C1          20.5210     6.1510     0.3360 ca         1 0B0       0.439900
     16 C11         23.7740     9.2920     3.6720 c6         1 0B0       0.099000
     17 C12         23.0710    10.4440     4.4250 c6         1 0B0      -0.095400
     18 C14         23.4100     8.8410     6.4680 c6         1 0B0       0.146500
     19 C16         22.5670     6.8560     9.5320 ca         1 0B0      -0.174000
     20 C18         24.4960     5.7870    10.5580 ca         1 0B0      -0.156000
     21 C19         25.3500     6.5620     9.7560 ca         1 0B0      -0.069500
     22 C2          19.2560     6.1490    -1.5890 ca         1 0B0       0.177900
     23 C3          18.1340     5.8290     0.3760 ca         1 0B0       0.139500
     24 C9          24.3880     6.5910     2.3110 c6         1 0B0      -0.085400
     25 N2          20.4770     6.2570    -1.0100 nb         1 0B0      -0.305000
     26 N4          17.1440     5.5990     1.3200 na         1 0B0      -0.317400
     27 N5          23.2450     7.9760     4.0960 n          1 0B0      -0.409800
     28 N6          22.8490     8.5400     7.8260 nu         1 0B0      -0.938200
     29 O1          23.4980     6.4570     5.8080 o          1 0B0      -0.546000
     30 H1          17.0850     5.3370     3.5180 h4         1 0B0       0.217000
     31 H2          19.7720     5.7080     3.2460 ha         1 0B0       0.210000
     32 H3          23.3780     6.7580    -0.3590 h1         1 0B0       0.068200
     33 H4          22.8520     5.0660    -0.4410 h1         1 0B0       0.068200
     34 H5          23.8550     4.5570     1.7400 hc         1 0B0       0.055200
     35 H6          25.0710     5.2870     0.6980 hc         1 0B0       0.055200
     36 H7          22.6900     6.0250     3.5060 h1         1 0B0       0.100700
     37 H8          22.7780    10.9420     6.5360 hc         1 0B0       0.056200
     38 H9          21.5770     9.8460     5.8770 hc         1 0B0       0.056200
     39 H10         22.4410     5.3370    11.0720 ha         1 0B0       0.107000
     40 H11         25.4810     8.0810     8.2340 ha         1 0B0       0.106500
     41 H12         22.2620     8.2740     1.4780 h1         1 0B0       0.058200
     42 H13         21.0350     7.5550     2.5210 h1         1 0B0       0.058200
     43 H14         24.8490     9.3180     3.9050 h1         1 0B0       0.049700
     44 H15         23.6770     9.4450     2.5890 h1         1 0B0       0.049700
     45 H16         23.7350    11.3200     4.4370 hc         1 0B0       0.054200
     46 H17         22.1770    10.7510     3.8660 hc         1 0B0       0.054200
     47 H18         24.4680     9.1310     6.5460 h1         1 0B0       0.080700
     48 H19         21.4890     6.9650     9.4520 ha         1 0B0       0.106500
     49 H20         24.9130     5.0750    11.2670 ha         1 0B0       0.112000
     50 H21         26.4290     6.4510     9.8440 ha         1 0B0       0.107000
     51 H22         19.2220     6.2390    -2.6740 h5         1 0B0       0.042100
     52 H23         25.1290     6.2410     3.0420 hc         1 0B0       0.045700
     53 H24         24.8150     7.4790     1.8260 hc         1 0B0       0.045700
     54 H25         16.1610     5.4930     1.0850 hn         1 0B0       0.361000
     55 H26         21.8380     8.6340     7.9270 hn         1 0B0       0.470000
@<TRIPOS>BOND
     1     1     6 1   
     2     1    14 1   
     3     1    15 1   
     4     2    22 ar  
     5     2    23 ar  
     6     3     4 2   
     7     3    26 1   
     8     3    30 1   
     9     4     5 1   
    10     4    31 1   
    11     5    15 ar  
    12     5    23 ar  
    13     6     7 1   
    14     6    32 1   
    15     6    33 1   
    16     7    24 1   
    17     7    34 1   
    18     7    35 1   
    19     8    14 1   
    20     8    24 1   
    21     8    27 1   
    22     8    36 1   
    23     9    17 1   
    24     9    18 1   
    25     9    37 1   
    26     9    38 1   
    27    10    12 ar  
    28    10    19 ar  
    29    10    28 1   
    30    11    19 ar  
    31    11    20 ar  
    32    11    39 1   
    33    12    21 ar  
    34    12    40 1   
    35    13    18 1   
    36    13    27 1   
    37    13    29 2   
    38    14    41 1   
    39    14    42 1   
    40    15    25 ar  
    41    16    17 1   
    42    16    27 1   
    43    16    43 1   
    44    16    44 1   
    45    17    45 1   
    46    17    46 1   
    47    18    28 1   
    48    18    47 1   
    49    19    48 1   
    50    20    21 ar  
    51    20    49 1   
    52    21    50 1   
    53    22    25 ar  
    54    22    51 1   
    55    23    26 1   
    56    24    52 1   
    57    24    53 1   
    58    26    54 1   
    59    28    55 1   
@<TRIPOS>SUBSTRUCTURE
     1 0B0         1 TEMP              0 ****  ****    0 ROOT
