@<TRIPOS>MOLECULE
0B0
   55    59     1     0     0
SMALL
abcg2


@<TRIPOS>ATOM
      1 N1          21.8850     6.8990     0.7580 nh         1 0B0      -0.772300
      2 N3          18.4360     4.6720     0.1020 nb         1 0B0      -0.229000
      3 C4          18.2040     6.1320     3.2810 cc         1 0B0      -0.179100
      4 C5          19.4370     6.6000     2.9420 cd         1 0B0      -0.200200
      5 C6          19.7100     6.1260     1.6150 ca         1 0B0      -0.244800
      6 C7          23.0790     6.5840    -0.0120 c6         1 0B0       0.217800
      7 C8          24.1120     5.9200     0.8930 c6         1 0B0      -0.103400
      8 C10         23.1310     7.1720     2.8410 c6         1 0B0       0.078700
      9 C13         22.7970    10.1560     5.8290 c6         1 0B0      -0.078400
     10 C15         23.0540     7.3940     8.3410 ca         1 0B0       0.325000
     11 C17         22.6340     5.9850    10.2700 ca         1 0B0      -0.069500
     12 C20         24.2630     6.7140     8.1490 ca         1 0B0      -0.174000
     13 C21         22.8760     7.7310     5.2010 c          1 0B0       0.526000
     14 C22         22.1570     7.8100     1.8450 c6         1 0B0       0.204800
     15 C1          20.7510     6.1670     0.6490 ca         1 0B0       0.439900
     16 C11         24.0790     9.3030     3.8180 c6         1 0B0       0.099000
     17 C12         23.2610    10.4520     4.3940 c6         1 0B0      -0.095400
     18 C14         23.2290     8.7560     6.2840 c6         1 0B0       0.146500
     19 C16         22.2440     7.0030     9.4190 ca         1 0B0      -0.174000
     20 C18         23.8400     5.3190    10.0800 ca         1 0B0      -0.156000
     21 C19         24.6440     5.6970     9.0140 ca         1 0B0      -0.069500
     22 C2          19.4910     4.7600    -0.6790 ca         1 0B0       0.177900
     23 C3          18.5920     5.3570     1.2370 ca         1 0B0       0.139500
     24 C9          24.4190     6.7750     2.1200 c6         1 0B0      -0.085400
     25 N2          20.6060     5.4480    -0.4700 nb         1 0B0      -0.305000
     26 N4          17.6960     5.3910     2.2480 na         1 0B0      -0.317400
     27 N5          23.3700     8.0400     3.9820 n          1 0B0      -0.409800
     28 N6          22.6530     8.4520     7.5570 nu         1 0B0      -0.938200
     29 O1          22.2030     6.7400     5.4400 o          1 0B0      -0.546000
     30 H1          17.6450     6.2660     4.1930 h4         1 0B0       0.217000
     31 H2          20.0550     7.1920     3.5930 ha         1 0B0       0.210000
     32 H3          23.4790     7.5160    -0.4260 h1         1 0B0       0.068200
     33 H4          22.8150     5.9410    -0.8460 h1         1 0B0       0.068200
     34 H5          23.7350     4.9410     1.2030 hc         1 0B0       0.055200
     35 H6          25.0290     5.7420     0.3270 hc         1 0B0       0.055200
     36 H7          22.6610     6.2670     3.2300 h1         1 0B0       0.100700
     37 H8          23.2000    10.8830     6.5340 hc         1 0B0       0.056200
     38 H9          21.7090    10.2240     5.8960 hc         1 0B0       0.056200
     39 H10         21.9840     5.7080    11.0910 ha         1 0B0       0.107000
     40 H11         24.9190     6.9670     7.3270 ha         1 0B0       0.106500
     41 H12         22.6030     8.7130     1.4120 h1         1 0B0       0.058200
     42 H13         21.2400     8.1300     2.3290 h1         1 0B0       0.058200
     43 H14         25.0650     9.2520     4.2880 h1         1 0B0       0.049700
     44 H15         24.2570     9.4760     2.7590 h1         1 0B0       0.049700
     45 H16         23.8630    11.3600     4.3600 hc         1 0B0       0.054200
     46 H17         22.3990    10.6210     3.7460 hc         1 0B0       0.054200
     47 H18         24.3200     8.7720     6.3860 h1         1 0B0       0.080700
     48 H19         21.3010     7.5110     9.5850 ha         1 0B0       0.106500
     49 H20         24.1440     4.5220    10.7460 ha         1 0B0       0.112000
     50 H21         25.5850     5.1910     8.8410 ha         1 0B0       0.107000
     51 H22         19.4490     4.2090    -1.6140 h5         1 0B0       0.042100
     52 H23         25.0750     6.2360     2.8070 hc         1 0B0       0.045700
     53 H24         24.9600     7.6700     1.7980 hc         1 0B0       0.045700
     54 H25         16.8080     4.9140     2.2480 hn         1 0B0       0.361000
     55 H26         21.6730     8.6810     7.6360 hn         1 0B0       0.470000
@<TRIPOS>BOND
     1     1     6 1   
     2     1    14 1   
     3     1    15 1   
     4     2    22 ar  
     5     2    23 ar  
     6     3     4 2   
     7     3    26 1   
     8     3    30 1   
     9     4     5 1   
    10     4    31 1   
    11     5    15 ar  
    12     5    23 ar  
    13     6     7 1   
    14     6    32 1   
    15     6    33 1   
    16     7    24 1   
    17     7    34 1   
    18     7    35 1   
    19     8    14 1   
    20     8    24 1   
    21     8    27 1   
    22     8    36 1   
    23     9    17 1   
    24     9    18 1   
    25     9    37 1   
    26     9    38 1   
    27    10    12 ar  
    28    10    19 ar  
    29    10    28 1   
    30    11    19 ar  
    31    11    20 ar  
    32    11    39 1   
    33    12    21 ar  
    34    12    40 1   
    35    13    18 1   
    36    13    27 1   
    37    13    29 2   
    38    14    41 1   
    39    14    42 1   
    40    15    25 ar  
    41    16    17 1   
    42    16    27 1   
    43    16    43 1   
    44    16    44 1   
    45    17    45 1   
    46    17    46 1   
    47    18    28 1   
    48    18    47 1   
    49    19    48 1   
    50    20    21 ar  
    51    20    49 1   
    52    21    50 1   
    53    22    25 ar  
    54    22    51 1   
    55    23    26 1   
    56    24    52 1   
    57    24    53 1   
    58    26    54 1   
    59    28    55 1   
@<TRIPOS>SUBSTRUCTURE
     1 0B0         1 TEMP              0 ****  ****    0 ROOT
