@<TRIPOS>MOLECULE
0B1
   47    50     1     0     0
SMALL
No Charge or Current Charge


@<TRIPOS>ATOM
      1 O1           1.0680     1.8780    -2.3880 o          1 0B1      -0.561000
      2 C1           1.7960     1.3680    -1.5490 c          1 0B1       0.584200
      3 N2           2.4760     2.0800    -0.5770 n          1 0B1      -0.340300
      4 C5           2.3440     3.5640    -0.5410 c3         1 0B1       0.058300
      5 C4           3.2590     1.3840     0.3110 cc         1 0B1       0.746800
      6 N3           3.8950     2.0370     1.2760 nv         1 0B1      -1.061200
      7 N1           3.4780     0.0970     0.3810 nd         1 0B1      -0.735300
      8 C3           2.8180    -0.6820    -0.5610 cd         1 0B1       0.276400
      9 C2           2.0270    -0.0570    -1.4890 cc         1 0B1      -0.430200
     10 C6           2.9870    -2.1630    -0.5630 cx         1 0B1      -0.093500
     11 C21          3.4020    -2.9280     0.6770 cx         1 0B1      -0.092400
     12 C7           1.9900    -3.0560     0.1520 cx         1 0B1      -0.063400
     13 C8           0.8070    -2.4940     0.8930 ca         1 0B1      -0.039300
     14 C13          0.7400    -2.5520     2.2970 ca         1 0B1      -0.090000
     15 C12         -0.3640    -2.0110     2.9740 ca         1 0B1      -0.118000
     16 C11         -1.4080    -1.4100     2.2520 ca         1 0B1      -0.101000
     17 C10         -1.3750    -1.3460     0.8370 cp         1 0B1      -0.039000
     18 C9          -0.2530    -1.9060     0.1760 ca         1 0B1      -0.089000
     19 C14         -2.4860    -0.7040     0.0630 cp         1 0B1       0.004000
     20 C20         -2.8850    -1.2040    -1.2010 ca         1 0B1      -0.135000
     21 C19         -3.9240    -0.6000    -1.9280 ca         1 0B1      -0.072000
     22 C18         -4.5890     0.5210    -1.4060 ca         1 0B1      -0.195000
     23 C16         -4.2110     1.0410    -0.1500 ca         1 0B1       0.138100
     24 C15         -3.1710     0.4290     0.5690 ca         1 0B1      -0.140000
     25 O2          -4.8230     2.1420     0.4120 os         1 0B1      -0.346100
     26 C17         -5.8960     2.8420    -0.2430 c3         1 0B1       0.149900
     27 H1           1.9520     3.9550    -1.4870 h1         1 0B1       0.056700
     28 H2           1.6620     3.8540     0.2690 h1         1 0B1       0.056700
     29 H3           3.3250     4.0270    -0.3730 h1         1 0B1       0.056700
     30 H5           3.4230     2.8570     1.6310 hn         1 0B1       0.509000
     31 H6           4.2640     1.4140     1.9810 hn         1 0B1       0.509000
     32 H8           1.5080    -0.6290    -2.2460 ha         1 0B1       0.212000
     33 H10          3.3770    -2.5320    -1.5080 hc         1 0B1       0.089700
     34 H11          4.0680    -3.7770     0.5470 hc         1 0B1       0.082200
     35 H12          3.5590    -2.3690     1.5950 hc         1 0B1       0.082200
     36 H13          1.7450    -3.9940    -0.3420 hc         1 0B1       0.083700
     37 H14          1.5410    -3.0160     2.8660 ha         1 0B1       0.113000
     38 H15         -0.4120    -2.0580     4.0600 ha         1 0B1       0.111000
     39 H16         -2.2580    -1.0040     2.7960 ha         1 0B1       0.114000
     40 H17         -0.1940    -1.8660    -0.9070 ha         1 0B1       0.120000
     41 H18         -2.3930    -2.0800    -1.6190 ha         1 0B1       0.118000
     42 H19         -4.2150    -1.0050    -2.8950 ha         1 0B1       0.112000
     43 H20         -5.3890     0.9700    -1.9880 ha         1 0B1       0.117000
     44 H21         -2.8850     0.8510     1.5280 ha         1 0B1       0.125000
     45 H22         -5.5660     3.2430    -1.2100 h1         1 0B1       0.040033
     46 H23         -6.7520     2.1760    -0.4110 h1         1 0B1       0.040033
     47 H24         -6.2350     3.6820     0.3750 h1         1 0B1       0.040033
@<TRIPOS>BOND
     1     1     2 2   
     2     2     3 1   
     3     2     9 1   
     4     3     4 1   
     5     3     5 1   
     6     4    27 1   
     7     4    28 1   
     8     4    29 1   
     9     5     6 1   
    10     5     7 2   
    11     6    30 1   
    12     6    31 1   
    13     7     8 1   
    14     8     9 2   
    15     8    10 1   
    16     9    32 1   
    17    10    11 1   
    18    10    12 1   
    19    10    33 1   
    20    11    12 1   
    21    11    34 1   
    22    11    35 1   
    23    12    13 1   
    24    12    36 1   
    25    13    14 ar  
    26    13    18 ar  
    27    14    15 ar  
    28    14    37 1   
    29    15    16 ar  
    30    15    38 1   
    31    16    17 ar  
    32    16    39 1   
    33    17    18 ar  
    34    17    19 1   
    35    18    40 1   
    36    19    20 ar  
    37    19    24 ar  
    38    20    21 ar  
    39    20    41 1   
    40    21    22 ar  
    41    21    42 1   
    42    22    23 ar  
    43    22    43 1   
    44    23    24 ar  
    45    23    25 1   
    46    24    44 1   
    47    25    26 1   
    48    26    45 1   
    49    26    46 1   
    50    26    47 1   
@<TRIPOS>SUBSTRUCTURE
     1 0B1         1 TEMP              0 ****  ****    0 ROOT
