@<TRIPOS>MOLECULE
0B1
   47    50     1     0     0
SMALL
bcc


@<TRIPOS>ATOM
      1 O1           1.9960     1.9060    -2.9840 o          1 0B1      -0.636500
      2 C1           2.2200     1.2540    -1.9690 c          1 0B1       0.726700
      3 N2           2.1820     1.8810    -0.7090 n          1 0B1      -0.407300
      4 C5           1.8670     3.2990    -0.6330 c3         1 0B1       0.058300
      5 C4           2.4390     1.1820     0.4310 cc         1 0B1       0.746800
      6 N3           2.3980     1.8320     1.5990 nv         1 0B1      -0.950800
      7 N1           2.7250    -0.0980     0.4500 nd         1 0B1      -0.735300
      8 C3           2.7370    -0.7520    -0.7210 cd         1 0B1       0.276400
      9 C2           2.5160    -0.1350    -1.9220 cc         1 0B1      -0.380200
     10 C6           2.9590    -2.2110    -0.6750 cx         1 0B1      -0.093500
     11 C21          3.4500    -2.8820     0.5750 cx         1 0B1      -0.092400
     12 C7           2.0300    -3.0680     0.1680 cx         1 0B1      -0.063400
     13 C8           0.9010    -2.4590     0.9250 ca         1 0B1      -0.039300
     14 C13          0.8540    -2.5020     2.3130 ca         1 0B1      -0.108000
     15 C12         -0.2210    -1.9500     2.9950 ca         1 0B1      -0.136000
     16 C11         -1.2530    -1.3400     2.2990 ca         1 0B1      -0.119000
     17 C10         -1.2250    -1.2820     0.9040 cp         1 0B1      -0.039000
     18 C9          -0.1460    -1.8560     0.2360 ca         1 0B1      -0.107000
     19 C14         -2.3100    -0.6200     0.1500 cp         1 0B1       0.004000
     20 C20         -2.7530    -1.1360    -1.0720 ca         1 0B1      -0.153000
     21 C19         -3.7700    -0.5010    -1.7600 ca         1 0B1      -0.090000
     22 C18         -4.3700     0.6520    -1.2640 ca         1 0B1      -0.213000
     23 C16         -3.9330     1.1710    -0.0490 ca         1 0B1       0.138100
     24 C15         -2.9050     0.5330     0.6480 ca         1 0B1      -0.158000
     25 O2          -4.4330     2.2820     0.5270 os         1 0B1      -0.322900
     26 C17         -5.4700     2.9780    -0.1330 c3         1 0B1       0.126700
     27 H1           1.6850     3.6710    -1.6340 h1         1 0B1       0.056700
     28 H2           0.9710     3.4660    -0.0350 h1         1 0B1       0.056700
     29 H3           2.6980     3.8590    -0.2050 h1         1 0B1       0.056700
     30 H5           2.2260     2.8160     1.6950 hn         1 0B1       0.453800
     31 H6           2.5770     1.3040     2.4350 hn         1 0B1       0.453800
     32 H8           2.5420    -0.6870    -2.8520 ha         1 0B1       0.162000
     33 H10          3.2530    -2.6460    -1.6230 hc         1 0B1       0.089700
     34 H11          4.1310    -3.7140     0.4610 hc         1 0B1       0.082200
     35 H12          3.6500    -2.2400     1.4230 hc         1 0B1       0.082200
     36 H13          1.7890    -4.0210    -0.2920 hc         1 0B1       0.083700
     37 H14          1.6630    -2.9670     2.8630 ha         1 0B1       0.131000
     38 H15         -0.2570    -1.9970     4.0760 ha         1 0B1       0.129000
     39 H16         -2.0930    -0.9270     2.8420 ha         1 0B1       0.132000
     40 H17         -0.0960    -1.7990    -0.8460 ha         1 0B1       0.138000
     41 H18         -2.3160    -2.0430    -1.4700 ha         1 0B1       0.136000
     42 H19         -4.1160    -0.9070    -2.7020 ha         1 0B1       0.130000
     43 H20         -5.1620     1.1200    -1.8330 ha         1 0B1       0.135000
     44 H21         -2.5640     0.9680     1.5800 ha         1 0B1       0.143000
     45 H22         -5.1580     3.3460    -1.1140 h1         1 0B1       0.040033
     46 H23         -6.3640     2.3610    -0.2570 h1         1 0B1       0.040033
     47 H24         -5.7190     3.8300     0.4950 h1         1 0B1       0.040033
@<TRIPOS>BOND
     1     1     2 2   
     2     2     3 1   
     3     2     9 1   
     4     3     4 1   
     5     3     5 1   
     6     4    27 1   
     7     4    28 1   
     8     4    29 1   
     9     5     6 1   
    10     5     7 2   
    11     6    30 1   
    12     6    31 1   
    13     7     8 1   
    14     8     9 2   
    15     8    10 1   
    16     9    32 1   
    17    10    11 1   
    18    10    12 1   
    19    10    33 1   
    20    11    12 1   
    21    11    34 1   
    22    11    35 1   
    23    12    13 1   
    24    12    36 1   
    25    13    14 ar  
    26    13    18 ar  
    27    14    15 ar  
    28    14    37 1   
    29    15    16 ar  
    30    15    38 1   
    31    16    17 ar  
    32    16    39 1   
    33    17    18 ar  
    34    17    19 1   
    35    18    40 1   
    36    19    20 ar  
    37    19    24 ar  
    38    20    21 ar  
    39    20    41 1   
    40    21    22 ar  
    41    21    42 1   
    42    22    23 ar  
    43    22    43 1   
    44    23    24 ar  
    45    23    25 1   
    46    24    44 1   
    47    25    26 1   
    48    26    45 1   
    49    26    46 1   
    50    26    47 1   
@<TRIPOS>SUBSTRUCTURE
     1 0B1         1 TEMP              0 ****  ****    0 ROOT
