@<TRIPOS>MOLECULE
0B2
   38    38     1     0     0
SMALL
abcg2


@<TRIPOS>ATOM
      1 N28         -0.1550     2.3020    -0.8130 n8         1 0B2      -0.986200
      2 C29         -0.4750     0.9310    -0.4790 c3         1 0B2       0.066500
      3 C30          0.4180     0.2790     0.5980 c3         1 0B2      -0.113400
      4 C41          1.9120     0.2760     0.2740 c6         1 0B2      -0.060700
      5 C42          2.6950    -0.3360     1.4370 c6         1 0B2      -0.072900
      6 C43          4.1950    -0.3640     1.1650 c6         1 0B2      -0.073400
      7 C44          4.5050    -1.1030    -0.1320 c6         1 0B2      -0.075400
      8 C45          3.7370    -0.4960    -1.3000 c6         1 0B2      -0.073400
      9 C46          2.2360    -0.4610    -1.0260 c6         1 0B2      -0.072900
     10 C31         -1.9070     0.8370     0.0130 c          1 0B2       0.578100
     11 O32         -2.4450     1.7710     0.5640 o          1 0B2      -0.513100
     12 C37         -2.6180    -0.4770    -0.2230 c3         1 0B2      -0.166700
     13 C38         -3.2120    -0.4460    -1.6370 c3         1 0B2      -0.080100
     14 C39         -3.6730    -0.7420     0.8400 c3         1 0B2       0.172600
     15 O40         -4.2260    -2.0180     0.6060 oh         1 0B2      -0.665000
     16 H28         -0.1590     2.8730     0.0240 hn         1 0B2       0.405000
     17 H29         -0.4050     0.3320    -1.3930 h1         1 0B2       0.075700
     18 H30          0.2660     0.8090     1.5450 hc         1 0B2       0.049700
     19 H31          0.0960    -0.7540     0.7660 hc         1 0B2       0.049700
     20 H32          2.2490     1.3170     0.1700 hc         1 0B2       0.041700
     21 H33          2.4860     0.2200     2.3560 hc         1 0B2       0.039700
     22 H34          2.3400    -1.3610     1.6060 hc         1 0B2       0.039700
     23 H35          4.5680     0.6640     1.0950 hc         1 0B2       0.039450
     24 H36          4.7210    -0.8280     2.0040 hc         1 0B2       0.039450
     25 H37          5.5790    -1.0850    -0.3330 hc         1 0B2       0.039700
     26 H38          4.2240    -2.1560    -0.0230 hc         1 0B2       0.039700
     27 H39          4.0940     0.5250    -1.4770 hc         1 0B2       0.039450
     28 H40          3.9350    -1.0560    -2.2170 hc         1 0B2       0.039450
     29 H41          1.8540    -1.4870    -0.9570 hc         1 0B2       0.039700
     30 H42          1.7240     0.0030    -1.8740 hc         1 0B2       0.039700
     31 H45         -1.8720    -1.2790    -0.1890 hc         1 0B2       0.070700
     32 H46         -3.6570    -1.4080    -1.8840 hc         1 0B2       0.044700
     33 H47         -3.9860     0.3190    -1.7200 hc         1 0B2       0.044700
     34 H48         -2.4490    -0.2370    -2.3880 hc         1 0B2       0.044700
     35 H49         -3.2100    -0.6880     1.8350 h1         1 0B2       0.030200
     36 H50         -4.4380     0.0410     0.7980 h1         1 0B2       0.030200
     37 H51         -4.9500    -2.1470     1.2240 ho         1 0B2       0.446000
     38 H2           0.7840     2.3520    -1.1860 hn         1 0B2       0.405000
@<TRIPOS>BOND
     1     1     2 1   
     2     1    16 1   
     3     1    38 1   
     4     2     3 1   
     5     2    10 1   
     6     2    17 1   
     7     3     4 1   
     8     3    18 1   
     9     3    19 1   
    10     4     5 1   
    11     4     9 1   
    12     4    20 1   
    13     5     6 1   
    14     5    21 1   
    15     5    22 1   
    16     6     7 1   
    17     6    23 1   
    18     6    24 1   
    19     7     8 1   
    20     7    25 1   
    21     7    26 1   
    22     8     9 1   
    23     8    27 1   
    24     8    28 1   
    25     9    29 1   
    26     9    30 1   
    27    10    11 2   
    28    10    12 1   
    29    12    13 1   
    30    12    14 1   
    31    12    31 1   
    32    13    32 1   
    33    13    33 1   
    34    13    34 1   
    35    14    15 1   
    36    14    35 1   
    37    14    36 1   
    38    15    37 1   
@<TRIPOS>SUBSTRUCTURE
     1 0B2         1 TEMP              0 ****  ****    0 ROOT
