@<TRIPOS>MOLECULE
0B2
   38    38     1     0     0
SMALL
No Charge or Current Charge


@<TRIPOS>ATOM
      1 N28         -0.0030     2.5440    -0.8170 n8         1 0B2      -0.986200
      2 C29         -0.4860     1.1440    -0.5580 c3         1 0B2       0.066500
      3 C30          0.3770     0.4760     0.5500 c3         1 0B2      -0.113400
      4 C41          1.9080     0.3230     0.2670 c6         1 0B2      -0.060700
      5 C42          2.6350    -0.2580     1.5140 c6         1 0B2      -0.072900
      6 C43          4.1560    -0.4170     1.2700 c6         1 0B2      -0.073400
      7 C44          4.4330    -1.2960     0.0280 c6         1 0B2      -0.075400
      8 C45          3.7220    -0.7270    -1.2230 c6         1 0B2      -0.073400
      9 C46          2.2000    -0.5620    -0.9820 c6         1 0B2      -0.072900
     10 C31         -2.0220     0.9960    -0.2390 c          1 0B2       0.578100
     11 O32         -2.6990     1.9380     0.1660 o          1 0B2      -0.513100
     12 C37         -2.6560    -0.3800    -0.5210 c3         1 0B2      -0.166700
     13 C38         -3.6920    -0.2910    -1.6730 c3         1 0B2      -0.080100
     14 C39         -3.2420    -0.9590     0.7840 c3         1 0B2       0.172600
     15 O40         -3.6180    -2.3270     0.5850 oh         1 0B2      -0.665000
     16 H28         -0.1910     3.1260     0.0090 hn         1 0B2       0.405000
     17 H29         -0.3350     0.5770    -1.4870 h1         1 0B2       0.075700
     18 H30          0.2340     1.0440     1.4780 hc         1 0B2       0.049700
     19 H31         -0.0360    -0.5200     0.7540 hc         1 0B2       0.049700
     20 H32          2.3070     1.3300     0.0840 hc         1 0B2       0.041700
     21 H33          2.4730     0.3970     2.3810 hc         1 0B2       0.039700
     22 H34          2.2030    -1.2330     1.7770 hc         1 0B2       0.039700
     23 H35          4.6150     0.5730     1.1340 hc         1 0B2       0.039450
     24 H36          4.6310    -0.8620     2.1550 hc         1 0B2       0.039450
     25 H37          5.5150    -1.3570    -0.1530 hc         1 0B2       0.039700
     26 H38          4.0880    -2.3220     0.2150 hc         1 0B2       0.039700
     27 H39          4.1620     0.2450    -1.4880 hc         1 0B2       0.039450
     28 H40          3.8930    -1.3900    -2.0820 hc         1 0B2       0.039450
     29 H41          1.7390    -1.5510    -0.8550 hc         1 0B2       0.039700
     30 H42          1.7490    -0.1210    -1.8800 hc         1 0B2       0.039700
     31 H45         -1.8540    -1.0520    -0.8530 hc         1 0B2       0.070700
     32 H46         -4.0820    -1.2830    -1.9280 hc         1 0B2       0.044700
     33 H47         -4.5380     0.3470    -1.3900 hc         1 0B2       0.044700
     34 H48         -3.2310     0.1310    -2.5740 hc         1 0B2       0.044700
     35 H49         -2.4870    -0.8910     1.5790 h1         1 0B2       0.030200
     36 H50         -4.1100    -0.3620     1.0940 h1         1 0B2       0.030200
     37 H51         -3.9980    -2.6460     1.4340 ho         1 0B2       0.446000
     38 H2           1.0210     2.5410    -0.8850 hn         1 0B2       0.405000
@<TRIPOS>BOND
     1     1     2 1   
     2     1    16 1   
     3     1    38 1   
     4     2     3 1   
     5     2    10 1   
     6     2    17 1   
     7     3     4 1   
     8     3    18 1   
     9     3    19 1   
    10     4     5 1   
    11     4     9 1   
    12     4    20 1   
    13     5     6 1   
    14     5    21 1   
    15     5    22 1   
    16     6     7 1   
    17     6    23 1   
    18     6    24 1   
    19     7     8 1   
    20     7    25 1   
    21     7    26 1   
    22     8     9 1   
    23     8    27 1   
    24     8    28 1   
    25     9    29 1   
    26     9    30 1   
    27    10    11 2   
    28    10    12 1   
    29    12    13 1   
    30    12    14 1   
    31    12    31 1   
    32    13    32 1   
    33    13    33 1   
    34    13    34 1   
    35    14    15 1   
    36    14    35 1   
    37    14    36 1   
    38    15    37 1   
@<TRIPOS>SUBSTRUCTURE
     1 0B2         1 TEMP              0 ****  ****    0 ROOT
