@<TRIPOS>MOLECULE
0B3
   37    38     1     0     0
SMALL
No Charge or Current Charge


@<TRIPOS>ATOM
      1 O            3.9930    -1.8260     0.9530 o          1 0B3      -0.533000
      2 C5           3.1720    -0.9560     0.6930 c          1 0B3       0.578000
      3 N3           3.5420     0.3110     0.2100 n          1 0B3      -0.387300
      4 C4           4.9870     0.6250     0.0380 c3         1 0B3       0.075300
      5 C3           2.5210     1.2160    -0.1040 c2         1 0B3       0.689800
      6 N2           2.8840     2.5130    -0.1430 nv         1 0B3      -1.033200
      7 N1           1.3070     0.8980    -0.3080 n2         1 0B3      -0.720900
      8 C6           1.6830    -1.2390     0.8430 c6         1 0B3      -0.186400
      9 C2           0.8700    -0.5040    -0.2380 c6         1 0B3       0.176200
     10 C1           1.0920    -1.1620    -1.6350 c3         1 0B3      -0.097100
     11 C7          -0.6550    -0.5410     0.1300 c3         1 0B3      -0.049400
     12 C8          -1.6390     0.1740    -0.8330 c3         1 0B3      -0.026100
     13 C9          -3.0710     0.1290    -0.3170 ca         1 0B3      -0.078300
     14 C14         -3.9080    -0.9580    -0.6380 ca         1 0B3      -0.108500
     15 C13         -5.2290    -1.0020    -0.1570 ca         1 0B3      -0.111000
     16 C12         -5.7200     0.0400     0.6470 ca         1 0B3      -0.114000
     17 C11         -4.8890     1.1260     0.9720 ca         1 0B3      -0.111000
     18 C10         -3.5680     1.1700     0.4920 ca         1 0B3      -0.108500
     19 H1           5.1420     1.1930    -0.8880 h1         1 0B3       0.049700
     20 H2           5.3390     1.2180     0.8910 h1         1 0B3       0.049700
     21 H3           5.5910    -0.2890    -0.0310 h1         1 0B3       0.049700
     22 H4           3.8090     2.6670    -0.5190 hn         1 0B3       0.477000
     23 H5           2.1620     3.0880    -0.5570 hn         1 0B3       0.477000
     24 H6           1.4940    -2.3190     0.8870 hc         1 0B3       0.082700
     25 H7           1.4010    -0.8070     1.8120 hc         1 0B3       0.082700
     26 H8           0.6940    -2.1830    -1.6610 hc         1 0B3       0.041700
     27 H9           0.6060    -0.5950    -2.4380 hc         1 0B3       0.041700
     28 H10          2.1570    -1.2220    -1.8920 hc         1 0B3       0.041700
     29 H11         -0.9770    -1.5860     0.2250 hc         1 0B3       0.043700
     30 H12         -0.7930    -0.1000     1.1260 hc         1 0B3       0.043700
     31 H13         -1.3260     1.2160    -0.9720 hc         1 0B3       0.056200
     32 H14         -1.5940    -0.2940    -1.8230 hc         1 0B3       0.056200
     33 H15         -3.5350    -1.7700    -1.2580 ha         1 0B3       0.111000
     34 H16         -5.8710    -1.8430    -0.4080 ha         1 0B3       0.110000
     35 H17         -6.7410     0.0060     1.0190 ha         1 0B3       0.110000
     36 H18         -5.2670     1.9330     1.5960 ha         1 0B3       0.110000
     37 H19         -2.9300     2.0130     0.7500 ha         1 0B3       0.111000
@<TRIPOS>BOND
     1     1     2 2   
     2     2     3 1   
     3     2     8 1   
     4     3     4 1   
     5     3     5 1   
     6     4    19 1   
     7     4    20 1   
     8     4    21 1   
     9     5     6 1   
    10     5     7 2   
    11     6    22 1   
    12     6    23 1   
    13     7     9 1   
    14     8     9 1   
    15     8    24 1   
    16     8    25 1   
    17     9    10 1   
    18     9    11 1   
    19    10    26 1   
    20    10    27 1   
    21    10    28 1   
    22    11    12 1   
    23    11    29 1   
    24    11    30 1   
    25    12    13 1   
    26    12    31 1   
    27    12    32 1   
    28    13    14 ar  
    29    13    18 ar  
    30    14    15 ar  
    31    14    33 1   
    32    15    16 ar  
    33    15    34 1   
    34    16    17 ar  
    35    16    35 1   
    36    17    18 ar  
    37    17    36 1   
    38    18    37 1   
@<TRIPOS>SUBSTRUCTURE
     1 0B3         1 TEMP              0 ****  ****    0 ROOT
