@<TRIPOS>MOLECULE
0B3
   37    38     1     0     0
SMALL
abcg2


@<TRIPOS>ATOM
      1 O            3.9620    -1.7570     1.0130 o          1 0B3      -0.533000
      2 C5           3.1190    -0.9460     0.6820 c          1 0B3       0.578000
      3 N3           3.4530     0.2860     0.1750 n          1 0B3      -0.387300
      4 C4           4.8530     0.6640     0.0660 c3         1 0B3       0.075300
      5 C3           2.4380     1.1980    -0.1670 c2         1 0B3       0.689800
      6 N2           2.8320     2.5030    -0.2240 nv         1 0B3      -1.033200
      7 N1           1.2200     0.8880    -0.3680 n2         1 0B3      -0.720900
      8 C6           1.6450    -1.1830     0.8380 c6         1 0B3      -0.186400
      9 C2           0.8370    -0.5050    -0.2660 c6         1 0B3       0.176200
     10 C1           1.0820    -1.2140    -1.6030 c3         1 0B3      -0.097100
     11 C7          -0.6470    -0.5770     0.1140 c3         1 0B3      -0.049400
     12 C8          -1.5970     0.1170    -0.8630 c3         1 0B3      -0.026100
     13 C9          -3.0090     0.1150    -0.3470 ca         1 0B3      -0.078300
     14 C14         -3.9110    -0.8720    -0.7360 ca         1 0B3      -0.108500
     15 C13         -5.2050    -0.8970    -0.2300 ca         1 0B3      -0.111000
     16 C12         -5.6170     0.0690     0.6780 ca         1 0B3      -0.114000
     17 C11         -4.7260     1.0580     1.0750 ca         1 0B3      -0.111000
     18 C10         -3.4350     1.0780     0.5670 ca         1 0B3      -0.108500
     19 H1           5.0660     1.0670    -0.9230 h1         1 0B3       0.049700
     20 H2           5.1280     1.4000     0.8220 h1         1 0B3       0.049700
     21 H3           5.4690    -0.2160     0.2090 h1         1 0B3       0.049700
     22 H4           3.7890     2.7330    -0.4310 hn         1 0B3       0.477000
     23 H5           2.1670     3.1140    -0.6700 hn         1 0B3       0.477000
     24 H6           1.4650    -2.2570     0.8820 hc         1 0B3       0.082700
     25 H7           1.3530    -0.7670     1.8100 hc         1 0B3       0.082700
     26 H8           0.7350    -2.2480    -1.5620 hc         1 0B3       0.041700
     27 H9           0.5580    -0.7120    -2.4170 hc         1 0B3       0.041700
     28 H10          2.1420    -1.2280    -1.8640 hc         1 0B3       0.041700
     29 H11         -0.9370    -1.6280     0.2170 hc         1 0B3       0.043700
     30 H12         -0.7690    -0.1250     1.1040 hc         1 0B3       0.043700
     31 H13         -1.2550     1.1410    -1.0240 hc         1 0B3       0.056200
     32 H14         -1.5700    -0.3840    -1.8330 hc         1 0B3       0.056200
     33 H15         -3.5990    -1.6290    -1.4460 ha         1 0B3       0.111000
     34 H16         -5.8920    -1.6700    -0.5500 ha         1 0B3       0.110000
     35 H17         -6.6260     0.0520     1.0710 ha         1 0B3       0.110000
     36 H18         -5.0390     1.8190     1.7800 ha         1 0B3       0.110000
     37 H19         -2.7470     1.8550     0.8830 ha         1 0B3       0.111000
@<TRIPOS>BOND
     1     1     2 2   
     2     2     3 1   
     3     2     8 1   
     4     3     4 1   
     5     3     5 1   
     6     4    19 1   
     7     4    20 1   
     8     4    21 1   
     9     5     6 1   
    10     5     7 2   
    11     6    22 1   
    12     6    23 1   
    13     7     9 1   
    14     8     9 1   
    15     8    24 1   
    16     8    25 1   
    17     9    10 1   
    18     9    11 1   
    19    10    26 1   
    20    10    27 1   
    21    10    28 1   
    22    11    12 1   
    23    11    29 1   
    24    11    30 1   
    25    12    13 1   
    26    12    31 1   
    27    12    32 1   
    28    13    14 ar  
    29    13    18 ar  
    30    14    15 ar  
    31    14    33 1   
    32    15    16 ar  
    33    15    34 1   
    34    16    17 ar  
    35    16    35 1   
    36    17    18 ar  
    37    17    36 1   
    38    18    37 1   
@<TRIPOS>SUBSTRUCTURE
     1 0B3         1 TEMP              0 ****  ****    0 ROOT
