@<TRIPOS>MOLECULE
0B4
   38    40     1     0     0
SMALL
abcg2


@<TRIPOS>ATOM
      1 O           18.3930    40.6680    -9.6490 o          1 0B4      -0.531000
      2 C5          17.9740    39.7790    -8.9210 c          1 0B4       0.576000
      3 N3          17.4820    40.0370    -7.6620 n          1 0B4      -0.392300
      4 C4          17.4650    41.4130    -7.1640 c3         1 0B4       0.081300
      5 C3          17.0520    38.9690    -6.8430 c2         1 0B4       0.679800
      6 N2          16.3480    39.3590    -5.7330 nv         1 0B4      -1.027200
      7 N1          17.3300    37.7350    -7.0390 n2         1 0B4      -0.714900
      8 C6          17.9160    38.3360    -9.3360 c6         1 0B4      -0.178400
      9 C2          18.2040    37.3950    -8.1610 c6         1 0B4       0.200200
     10 C1          17.9100    35.9530    -8.5770 c3         1 0B4      -0.067100
     11 C7          19.6860    37.4980    -7.7860 cx         1 0B4      -0.127700
     12 C9          20.2360    36.9970    -6.4910 cx         1 0B4      -0.101400
     13 C8          20.2270    38.4830    -6.7740 cx         1 0B4      -0.082400
     14 C10         21.4510    39.2700    -7.0580 ca         1 0B4      -0.042300
     15 C15         21.4660    40.6360    -6.7630 ca         1 0B4      -0.106000
     16 C14         22.5810    41.4190    -7.0410 ca         1 0B4      -0.107500
     17 C13         23.7090    40.8480    -7.6200 ca         1 0B4      -0.112000
     18 C12         23.7090    39.4870    -7.9160 ca         1 0B4      -0.107500
     19 C11         22.5930    38.7070    -7.6370 ca         1 0B4      -0.106000
     20 H1          17.8710    41.4440    -6.1560 h1         1 0B4       0.051367
     21 H2          18.0830    42.0110    -7.8240 h1         1 0B4       0.051367
     22 H3          16.4520    41.8210    -7.1630 h1         1 0B4       0.051367
     23 H5          15.9340    38.5920    -5.2260 hn         1 0B4       0.475500
     24 H6          15.7560    40.1720    -5.8080 hn         1 0B4       0.475500
     25 H10         16.9040    38.1440    -9.7100 hc         1 0B4       0.081200
     26 H11         18.6120    38.1880   -10.1600 hc         1 0B4       0.081200
     27 H12         18.1020    35.2780    -7.7410 hc         1 0B4       0.042367
     28 H13         16.8650    35.8500    -8.8750 hc         1 0B4       0.042367
     29 H14         18.5440    35.6570    -9.4160 hc         1 0B4       0.042367
     30 H15         20.3320    37.3510    -8.6450 hc         1 0B4       0.080700
     31 H16         19.5330    36.6510    -5.7450 hc         1 0B4       0.078200
     32 H17         21.1850    36.4770    -6.5070 hc         1 0B4       0.078200
     33 H18         19.4860    39.0350    -6.2130 hc         1 0B4       0.085700
     34 H19         20.5890    41.0880    -6.3140 ha         1 0B4       0.108000
     35 H20         22.5680    42.4760    -6.8040 ha         1 0B4       0.110500
     36 H21         24.5800    41.4540    -7.8380 ha         1 0B4       0.111000
     37 H22         24.5820    39.0300    -8.3660 ha         1 0B4       0.110500
     38 H23         22.6140    37.6510    -7.8760 ha         1 0B4       0.108000
@<TRIPOS>BOND
     1     1     2 2   
     2     2     3 1   
     3     2     8 1   
     4     3     4 1   
     5     3     5 1   
     6     4    20 1   
     7     4    21 1   
     8     4    22 1   
     9     5     6 1   
    10     5     7 2   
    11     6    23 1   
    12     6    24 1   
    13     7     9 1   
    14     8     9 1   
    15     8    25 1   
    16     8    26 1   
    17     9    10 1   
    18     9    11 1   
    19    10    27 1   
    20    10    28 1   
    21    10    29 1   
    22    11    12 1   
    23    11    13 1   
    24    11    30 1   
    25    12    13 1   
    26    12    31 1   
    27    12    32 1   
    28    13    14 1   
    29    13    33 1   
    30    14    15 ar  
    31    14    19 ar  
    32    15    16 ar  
    33    15    34 1   
    34    16    17 ar  
    35    16    35 1   
    36    17    18 ar  
    37    17    36 1   
    38    18    19 ar  
    39    18    37 1   
    40    19    38 1   
@<TRIPOS>SUBSTRUCTURE
     1 0B4         1 TEMP              0 ****  ****    0 ROOT
