@<TRIPOS>MOLECULE
0B4
   38    40     1     0     0
SMALL
No Charge or Current Charge


@<TRIPOS>ATOM
      1 O           18.2930    40.7220    -9.5510 o          1 0B4      -0.531000
      2 C5          17.8640    39.8210    -8.8420 c          1 0B4       0.576000
      3 N3          17.3450    40.0560    -7.5600 n          1 0B4      -0.392300
      4 C4          17.3330    41.4490    -7.0390 c3         1 0B4       0.081300
      5 C3          16.9640    38.9510    -6.7920 c2         1 0B4       0.679800
      6 N2          16.0900    39.2150    -5.8020 nv         1 0B4      -1.027200
      7 N1          17.3360    37.7540    -7.0100 n2         1 0B4      -0.714900
      8 C6          17.9060    38.3770    -9.3190 c6         1 0B4      -0.178400
      9 C2          18.2200    37.4320    -8.1450 c6         1 0B4       0.200200
     10 C1          17.9040    35.9650    -8.5520 c3         1 0B4      -0.067100
     11 C7          19.7280    37.5240    -7.7760 cx         1 0B4      -0.127700
     12 C9          20.2710    37.0590    -6.4440 cx         1 0B4      -0.101400
     13 C8          20.2930    38.5360    -6.7960 cx         1 0B4      -0.082400
     14 C10         21.5540    39.3030    -7.1080 ca         1 0B4      -0.042300
     15 C15         21.5980    40.6900    -6.8570 ca         1 0B4      -0.106000
     16 C14         22.7550    41.4340    -7.1440 ca         1 0B4      -0.107500
     17 C13         23.8820    40.7990    -7.6890 ca         1 0B4      -0.112000
     18 C12         23.8500    39.4190    -7.9470 ca         1 0B4      -0.107500
     19 C11         22.6920    38.6740    -7.6600 ca         1 0B4      -0.106000
     20 H1          17.3920    41.4530    -5.9440 h1         1 0B4       0.051367
     21 H2          18.1950    42.0110    -7.4200 h1         1 0B4       0.051367
     22 H3          16.4100    41.9530    -7.3540 h1         1 0B4       0.051367
     23 H5          15.6790    38.3610    -5.4470 hn         1 0B4       0.475500
     24 H6          15.4190    39.9350    -6.0340 hn         1 0B4       0.475500
     25 H10         16.8850    38.1480    -9.6520 hc         1 0B4       0.081200
     26 H11         18.5790    38.2650   -10.1780 hc         1 0B4       0.081200
     27 H12         18.1230    35.2680    -7.7340 hc         1 0B4       0.042367
     28 H13         16.8480    35.8380    -8.8190 hc         1 0B4       0.042367
     29 H14         18.5020    35.6550    -9.4170 hc         1 0B4       0.042367
     30 H15         20.3530    37.2960    -8.6360 hc         1 0B4       0.080700
     31 H16         19.5630    36.7340    -5.6850 hc         1 0B4       0.078200
     32 H17         21.2100    36.5110    -6.4400 hc         1 0B4       0.078200
     33 H18         19.5950    39.1400    -6.2230 hc         1 0B4       0.085700
     34 H19         20.7310    41.1970    -6.4380 ha         1 0B4       0.108000
     35 H20         22.7770    42.5030    -6.9450 ha         1 0B4       0.110500
     36 H21         24.7780    41.3740    -7.9120 ha         1 0B4       0.111000
     37 H22         24.7210    38.9250    -8.3720 ha         1 0B4       0.110500
     38 H23         22.6870    37.6090    -7.8730 ha         1 0B4       0.108000
@<TRIPOS>BOND
     1     1     2 2   
     2     2     3 1   
     3     2     8 1   
     4     3     4 1   
     5     3     5 1   
     6     4    20 1   
     7     4    21 1   
     8     4    22 1   
     9     5     6 1   
    10     5     7 2   
    11     6    23 1   
    12     6    24 1   
    13     7     9 1   
    14     8     9 1   
    15     8    25 1   
    16     8    26 1   
    17     9    10 1   
    18     9    11 1   
    19    10    27 1   
    20    10    28 1   
    21    10    29 1   
    22    11    12 1   
    23    11    13 1   
    24    11    30 1   
    25    12    13 1   
    26    12    31 1   
    27    12    32 1   
    28    13    14 1   
    29    13    33 1   
    30    14    15 ar  
    31    14    19 ar  
    32    15    16 ar  
    33    15    34 1   
    34    16    17 ar  
    35    16    35 1   
    36    17    18 ar  
    37    17    36 1   
    38    18    19 ar  
    39    18    37 1   
    40    19    38 1   
@<TRIPOS>SUBSTRUCTURE
     1 0B4         1 TEMP              0 ****  ****    0 ROOT
