@<TRIPOS>MOLECULE
0B5
   50    52     1     0     0
SMALL
abcg2


@<TRIPOS>ATOM
      1 F4          -3.6170     2.9610     0.6150 f          1 0B5      -0.182000
      2 C18         -2.3500     2.5230     0.4730 ca         1 0B5       0.143000
      3 C7          -2.0650     1.4790    -0.4020 ca         1 0B5      -0.106300
      4 C1          -3.1300     0.7800    -1.2550 c6         1 0B5       0.214500
      5 N1          -2.5170    -0.2050    -2.1170 n2         1 0B5      -0.759900
      6 C6          -2.5070    -1.4340    -1.7890 c2         1 0B5       0.830500
      7 N           -1.9370    -2.3840    -2.5680 nv         1 0B5      -1.020200
      8 O           -2.9900    -1.9760    -0.6560 os         1 0B5      -0.474600
      9 C3          -3.4820    -1.0880     0.3280 c6         1 0B5       0.097300
     10 C4          -4.3550    -1.9310     1.2610 c3         1 0B5       0.200000
     11 F1          -4.9570    -1.0630     2.1310 f          1 0B5      -0.109000
     12 F2          -5.3640    -2.5150     0.5580 f          1 0B5      -0.109000
     13 C5          -3.5970    -2.9770     2.0340 c3         1 0B5      -0.144100
     14 C2          -4.1510     0.1060    -0.3240 c6         1 0B5       0.145300
     15 F           -5.2240    -0.3300    -1.0880 f          1 0B5      -0.241000
     16 C           -3.8150     1.8000    -2.1740 c3         1 0B5      -0.069100
     17 C17         -1.3770     3.1430     1.2270 ca         1 0B5      -0.128000
     18 C16         -0.0540     2.7380     1.1350 ca         1 0B5      -0.106000
     19 C9           0.2740     1.6970     0.2710 ca         1 0B5      -0.034000
     20 C8          -0.7340     1.0930    -0.4810 ca         1 0B5      -0.126000
     21 N2           1.5640     1.1920     0.0930 ns         1 0B5      -0.126000
     22 C10          2.7070     1.5380     0.7210 c          1 0B5       0.528600
     23 O2           2.8180     2.4150     1.5600 o          1 0B5      -0.584100
     24 C11          3.8860     0.7250     0.2970 ca         1 0B5       0.185500
     25 C15          5.1320     0.9500     0.8530 ca         1 0B5       0.400900
     26 N4           6.1860     0.2180     0.5050 nb         1 0B5      -0.721000
     27 C13          5.9990    -0.7150    -0.3940 ca         1 0B5       0.554300
     28 C12          4.7420    -0.9520    -0.9770 ca         1 0B5       0.289900
     29 N3           3.7110    -0.2300    -0.6180 nb         1 0B5      -0.621000
     30 O1           7.0100    -1.4910    -0.7970 os         1 0B5      -0.473300
     31 C14          8.2810    -1.2780    -0.2640 c3         1 0B5       0.418600
     32 F3           8.3280    -1.7670     1.0160 f          1 0B5      -0.257000
     33 H1          -1.7780    -2.1250    -3.5280 hn         1 0B5       0.489500
     34 H2          -2.2090    -3.3430    -2.4270 hn         1 0B5       0.489500
     35 H3          -2.6480    -0.7080     0.9320 h1         1 0B5       0.079700
     36 H4          -3.0960    -3.6700     1.3620 hc         1 0B5       0.067033
     37 H5          -2.8440    -2.5080     2.6650 hc         1 0B5       0.067033
     38 H6          -4.2790    -3.5430     2.6680 hc         1 0B5       0.067033
     39 H7          -4.5360     0.7900     0.4300 h1         1 0B5       0.098700
     40 H8          -3.0570     2.3360    -2.7460 hc         1 0B5       0.052700
     41 H9          -4.4650     1.2910    -2.8830 hc         1 0B5       0.052700
     42 H10         -4.4120     2.5300    -1.6310 hc         1 0B5       0.052700
     43 H11         -1.6500     3.9500     1.8940 ha         1 0B5       0.136000
     44 H12          0.6890     3.2350     1.7350 ha         1 0B5       0.153000
     45 H13         -0.4710     0.2900    -1.1580 ha         1 0B5       0.136000
     46 H14          1.6550     0.4360    -0.5740 hn         1 0B5       0.183000
     47 H15          5.2910     1.7220     1.5940 h4         1 0B5       0.059100
     48 H16          4.6040    -1.7260    -1.7220 h4         1 0B5       0.051100
     49 H17          8.9640    -1.8500    -0.8850 h2         1 0B5       0.071700
     50 H18          8.5430    -0.2210    -0.2430 h2         1 0B5       0.071700
@<TRIPOS>BOND
     1     1     2 1   
     2     2     3 ar  
     3     2    17 ar  
     4     3     4 1   
     5     3    20 ar  
     6     4     5 1   
     7     4    14 1   
     8     4    16 1   
     9     5     6 2   
    10     6     7 1   
    11     6     8 1   
    12     7    33 1   
    13     7    34 1   
    14     8     9 1   
    15     9    10 1   
    16     9    14 1   
    17     9    35 1   
    18    10    11 1   
    19    10    12 1   
    20    10    13 1   
    21    13    36 1   
    22    13    37 1   
    23    13    38 1   
    24    14    15 1   
    25    14    39 1   
    26    16    40 1   
    27    16    41 1   
    28    16    42 1   
    29    17    18 ar  
    30    17    43 1   
    31    18    19 ar  
    32    18    44 1   
    33    19    20 ar  
    34    19    21 1   
    35    20    45 1   
    36    21    22 1   
    37    21    46 1   
    38    22    23 2   
    39    22    24 1   
    40    24    25 ar  
    41    24    29 ar  
    42    25    26 ar  
    43    25    47 1   
    44    26    27 ar  
    45    27    28 ar  
    46    27    30 1   
    47    28    29 ar  
    48    28    48 1   
    49    30    31 1   
    50    31    32 1   
    51    31    49 1   
    52    31    50 1   
@<TRIPOS>SUBSTRUCTURE
     1 0B5         1 TEMP              0 ****  ****    0 ROOT
