@<TRIPOS>MOLECULE
0B5
   50    52     1     0     0
SMALL
No Charge or Current Charge


@<TRIPOS>ATOM
      1 F4          -3.6590     2.9830     0.6100 f          1 0B5      -0.182000
      2 C18         -2.3930     2.5310     0.4780 ca         1 0B5       0.143000
      3 C7          -2.0760     1.4650    -0.4040 ca         1 0B5      -0.106300
      4 C1          -3.1860     0.7580    -1.2570 c6         1 0B5       0.214500
      5 N1          -2.5950    -0.2780    -2.1510 n2         1 0B5      -0.759900
      6 C6          -2.5620    -1.5050    -1.8050 c2         1 0B5       0.830500
      7 N           -2.1140    -2.4750    -2.5960 nv         1 0B5      -1.020200
      8 O           -3.1670    -2.0280    -0.7060 os         1 0B5      -0.474600
      9 C3          -3.6370    -1.1330     0.3330 c6         1 0B5       0.097300
     10 C4          -4.5710    -1.9200     1.3140 c3         1 0B5       0.200000
     11 F1          -5.0830    -1.0770     2.2410 f          1 0B5      -0.109000
     12 F2          -5.6290    -2.4580     0.6610 f          1 0B5      -0.109000
     13 C5          -3.8450    -3.0600     2.0600 c3         1 0B5      -0.144100
     14 C2          -4.2720     0.1210    -0.3190 c6         1 0B5       0.145300
     15 F           -5.3930    -0.2740    -1.0920 f          1 0B5      -0.241000
     16 C           -3.8200     1.8040    -2.2280 c3         1 0B5      -0.069100
     17 C17         -1.4000     3.1530     1.2480 ca         1 0B5      -0.128000
     18 C16         -0.0640     2.7360     1.1630 ca         1 0B5      -0.106000
     19 C9           0.2880     1.6820     0.2970 ca         1 0B5      -0.034000
     20 C8          -0.7140     1.0620    -0.4740 ca         1 0B5      -0.126000
     21 N2           1.6200     1.2000     0.1490 ns         1 0B5      -0.126000
     22 C10          2.8270     1.5560     0.7430 c          1 0B5       0.528600
     23 O2           2.9350     2.4440     1.5860 o          1 0B5      -0.584100
     24 C11          4.0200     0.7490     0.2640 ca         1 0B5       0.185500
     25 C15          5.3010     1.0390     0.8110 ca         1 0B5       0.400900
     26 N4           6.4340     0.3700     0.4440 nb         1 0B5      -0.721000
     27 C13          6.2680    -0.6130    -0.4820 ca         1 0B5       0.554300
     28 C12          4.9880    -0.9020    -1.0430 ca         1 0B5       0.289900
     29 N3           3.8520    -0.2360    -0.6810 nb         1 0B5      -0.621000
     30 O1           7.3640    -1.3200    -0.9240 os         1 0B5      -0.473300
     31 C14          8.6120    -1.2710    -0.2100 c3         1 0B5       0.418600
     32 F3           8.5120    -1.9400     0.9660 f          1 0B5      -0.257000
     33 H1          -2.1410    -2.1780    -3.5600 hn         1 0B5       0.489500
     34 H2          -2.5970    -3.3420    -2.4100 hn         1 0B5       0.489500
     35 H3          -2.7620    -0.8040     0.9130 h1         1 0B5       0.079700
     36 H4          -3.4630    -3.8060     1.3530 hc         1 0B5       0.067033
     37 H5          -2.9990    -2.6680     2.6370 hc         1 0B5       0.067033
     38 H6          -4.5280    -3.5650     2.7530 hc         1 0B5       0.067033
     39 H7          -4.6290     0.8230     0.4430 h1         1 0B5       0.098700
     40 H8          -3.0450     2.3330    -2.7950 hc         1 0B5       0.052700
     41 H9          -4.4860     1.3260    -2.9570 hc         1 0B5       0.052700
     42 H10         -4.4150     2.5560    -1.7020 hc         1 0B5       0.052700
     43 H11         -1.6710     3.9670     1.9160 ha         1 0B5       0.136000
     44 H12          0.6740     3.2440     1.7750 ha         1 0B5       0.153000
     45 H13         -0.4090     0.2560    -1.1350 ha         1 0B5       0.136000
     46 H14          1.7140     0.4470    -0.5230 hn         1 0B5       0.183000
     47 H15          5.4300     1.8230     1.5560 h4         1 0B5       0.059100
     48 H16          4.8790    -1.6830    -1.7930 h4         1 0B5       0.051100
     49 H17          9.4040    -1.7440    -0.8010 h2         1 0B5       0.071700
     50 H18          8.9190    -0.2390    -0.0090 h2         1 0B5       0.071700
@<TRIPOS>BOND
     1     1     2 1   
     2     2     3 ar  
     3     2    17 ar  
     4     3     4 1   
     5     3    20 ar  
     6     4     5 1   
     7     4    14 1   
     8     4    16 1   
     9     5     6 2   
    10     6     7 1   
    11     6     8 1   
    12     7    33 1   
    13     7    34 1   
    14     8     9 1   
    15     9    10 1   
    16     9    14 1   
    17     9    35 1   
    18    10    11 1   
    19    10    12 1   
    20    10    13 1   
    21    13    36 1   
    22    13    37 1   
    23    13    38 1   
    24    14    15 1   
    25    14    39 1   
    26    16    40 1   
    27    16    41 1   
    28    16    42 1   
    29    17    18 ar  
    30    17    43 1   
    31    18    19 ar  
    32    18    44 1   
    33    19    20 ar  
    34    19    21 1   
    35    20    45 1   
    36    21    22 1   
    37    21    46 1   
    38    22    23 2   
    39    22    24 1   
    40    24    25 ar  
    41    24    29 ar  
    42    25    26 ar  
    43    25    47 1   
    44    26    27 ar  
    45    27    28 ar  
    46    27    30 1   
    47    28    29 ar  
    48    28    48 1   
    49    30    31 1   
    50    31    32 1   
    51    31    49 1   
    52    31    50 1   
@<TRIPOS>SUBSTRUCTURE
     1 0B5         1 TEMP              0 ****  ****    0 ROOT
