@<TRIPOS>MOLECULE
0B6
   43    45     1     0     0
SMALL
bcc


@<TRIPOS>ATOM
      1 F2          -3.4300     2.8650    -0.3560 f          1 0B6      -0.150900
      2 C19         -2.1810     2.3650    -0.2820 ca         1 0B6       0.111900
      3 C7          -1.9510     1.0300    -0.5940 ca         1 0B6      -0.089300
      4 C2          -3.0670     0.0770    -1.0440 c6         1 0B6       0.282700
      5 N2          -2.5290    -1.2580    -1.2050 n2         1 0B6      -0.754900
      6 C6          -2.7100    -2.1370    -0.3100 c2         1 0B6       0.821500
      7 N1          -2.1030    -3.3450    -0.3230 nv         1 0B6      -0.911800
      8 O1          -3.4810    -2.0040     0.7990 os         1 0B6      -0.368700
      9 C4          -4.3270    -0.9270     0.8140 c2         1 0B6       0.032900
     10 C5          -5.3660    -1.0310     1.8690 c3         1 0B6       0.222100
     11 F1          -6.1750    -2.1400     1.6330 f          1 0B6      -0.238300
     12 C3          -4.1860     0.0790    -0.0340 c2         1 0B6      -0.231200
     13 C1          -3.5930     0.5230    -2.4140 c3         1 0B6      -0.072100
     14 C18         -1.1730     3.2180     0.1120 ca         1 0B6      -0.149000
     15 C17          0.1320     2.7610     0.2090 ca         1 0B6      -0.126000
     16 C9           0.4050     1.4310    -0.0990 ca         1 0B6       0.053600
     17 C8          -0.6390     0.5920    -0.4950 ca         1 0B6      -0.137000
     18 N3           1.6750     0.8500    -0.0360 ns         1 0B6      -0.447100
     19 C10          2.8550     1.4150     0.2730 c          1 0B6       0.579600
     20 O2           3.0400     2.5830     0.5630 o          1 0B6      -0.581100
     21 C11          4.0040     0.4410     0.2330 ca         1 0B6       0.369800
     22 C15          5.2840     0.8800     0.5370 ca         1 0B6      -0.189300
     23 C14          6.3190    -0.0360     0.4930 ca         1 0B6      -0.062000
     24 C13          6.0260    -1.3510     0.1460 ca         1 0B6      -0.117300
     25 C12          4.7050    -1.6970    -0.1430 ca         1 0B6       0.446200
     26 N4           3.7280    -0.8150    -0.0980 nb         1 0B6      -0.681000
     27 C16          7.0480    -2.3410     0.0840 cg         1 0B6       0.227800
     28 N5           7.8680    -3.1480     0.0330 n1         1 0B6      -0.337800
     29 H1          -1.6310    -3.5910    -1.1770 hn         1 0B6       0.434800
     30 H2          -2.5450    -4.1120     0.1580 hn         1 0B6       0.434800
     31 H3          -4.9160    -1.1520     2.8560 h1         1 0B6       0.063700
     32 H4          -5.9820    -0.1330     1.8670 h1         1 0B6       0.063700
     33 H5          -4.9040     0.8860    -0.0170 ha         1 0B6       0.160000
     34 H6          -2.7860     0.5010    -3.1470 hc         1 0B6       0.047033
     35 H7          -4.3780    -0.1570    -2.7470 hc         1 0B6       0.047033
     36 H8          -4.0070     1.5290    -2.3880 hc         1 0B6       0.047033
     37 H9          -1.4050     4.2490     0.3490 ha         1 0B6       0.151000
     38 H10          0.9070     3.4410     0.5210 ha         1 0B6       0.168000
     39 H11         -0.4240    -0.4400    -0.7420 ha         1 0B6       0.155000
     40 H12          1.7260    -0.1370    -0.2550 hn         1 0B6       0.351500
     41 H13          5.4720     1.9110     0.8010 ha         1 0B6       0.176000
     42 H14          7.3330     0.2620     0.7220 ha         1 0B6       0.157000
     43 H15          4.4480    -2.7130    -0.4160 h4         1 0B6       0.037100
@<TRIPOS>BOND
     1     1     2 1   
     2     2     3 ar  
     3     2    14 ar  
     4     3     4 1   
     5     3    17 ar  
     6     4     5 1   
     7     4    12 1   
     8     4    13 1   
     9     5     6 2   
    10     6     7 1   
    11     6     8 1   
    12     7    29 1   
    13     7    30 1   
    14     8     9 1   
    15     9    10 1   
    16     9    12 2   
    17    10    11 1   
    18    10    31 1   
    19    10    32 1   
    20    12    33 1   
    21    13    34 1   
    22    13    35 1   
    23    13    36 1   
    24    14    15 ar  
    25    14    37 1   
    26    15    16 ar  
    27    15    38 1   
    28    16    17 ar  
    29    16    18 1   
    30    17    39 1   
    31    18    19 1   
    32    18    40 1   
    33    19    20 2   
    34    19    21 1   
    35    21    22 ar  
    36    21    26 ar  
    37    22    23 ar  
    38    22    41 1   
    39    23    24 ar  
    40    23    42 1   
    41    24    25 ar  
    42    24    27 1   
    43    25    26 ar  
    44    25    43 1   
    45    27    28 3   
@<TRIPOS>SUBSTRUCTURE
     1 0B6         1 TEMP              0 ****  ****    0 ROOT
