@<TRIPOS>MOLECULE
0B6
   43    45     1     0     0
SMALL
No Charge or Current Charge


@<TRIPOS>ATOM
      1 F2          -3.4420     2.9460    -0.5200 f          1 0B6      -0.186000
      2 C19         -2.1940     2.4360    -0.4270 ca         1 0B6       0.147000
      3 C7          -1.9410     1.0530    -0.6160 ca         1 0B6      -0.089300
      4 C2          -3.0960     0.0540    -0.9490 c6         1 0B6       0.282700
      5 N2          -2.5800    -1.3090    -1.2050 n2         1 0B6      -0.754900
      6 C6          -2.8760    -2.2880    -0.4470 c2         1 0B6       0.821500
      7 N1          -2.4370    -3.5340    -0.6570 nv         1 0B6      -1.022200
      8 O1          -3.7560    -2.2340     0.5890 os         1 0B6      -0.368700
      9 C4          -4.4080    -1.0680     0.8640 c2         1 0B6       0.032900
     10 C5          -5.4210    -1.1800     1.9940 c3         1 0B6       0.240800
     11 F1          -6.6890    -1.0050     1.5420 f          1 0B6      -0.257000
     12 C3          -4.1330     0.0340     0.1600 c2         1 0B6      -0.281200
     13 C1          -3.8090     0.4510    -2.2750 c3         1 0B6      -0.072100
     14 C18         -1.1520     3.3260    -0.1230 ca         1 0B6      -0.131000
     15 C17          0.1660     2.8660     0.0050 ca         1 0B6      -0.108000
     16 C9           0.4520     1.4970    -0.1680 ca         1 0B6      -0.039000
     17 C8          -0.5990     0.6090    -0.4720 ca         1 0B6      -0.119000
     18 N3           1.7610     0.9470    -0.0500 ns         1 0B6      -0.121000
     19 C10          3.0040     1.5090     0.2290 c          1 0B6       0.512600
     20 O2           3.1740     2.7090     0.4400 o          1 0B6      -0.581100
     21 C11          4.1560     0.5000     0.2530 ca         1 0B6       0.304500
     22 C15          5.4700     0.9450     0.5240 ca         1 0B6      -0.106000
     23 C14          6.5310     0.0240     0.5480 ca         1 0B6      -0.044000
     24 C13          6.2480    -1.3300     0.2960 ca         1 0B6      -0.052000
     25 C12          4.9220    -1.7060     0.0330 ca         1 0B6       0.380900
     26 N4           3.8930    -0.8210     0.0090 nb         1 0B6      -0.681000
     27 C16          7.2840    -2.3190     0.3050 cg         1 0B6       0.317000
     28 N5           8.1350    -3.1170     0.3140 n1         1 0B6      -0.427000
     29 H1          -2.1600    -3.6500    -1.6210 hn         1 0B6       0.490000
     30 H2          -3.0960    -4.2240    -0.3240 hn         1 0B6       0.490000
     31 H3          -5.3560    -2.1660     2.4710 h1         1 0B6       0.063700
     32 H4          -5.2160    -0.4170     2.7550 h1         1 0B6       0.063700
     33 H5          -4.6600     0.9640     0.3680 ha         1 0B6       0.210000
     34 H6          -3.0910     0.5330    -3.1000 hc         1 0B6       0.047033
     35 H7          -4.5580    -0.2970    -2.5610 hc         1 0B6       0.047033
     36 H8          -4.3350     1.4070    -2.2020 hc         1 0B6       0.047033
     37 H9          -1.3730     4.3810     0.0160 ha         1 0B6       0.133000
     38 H10          0.9420     3.5870     0.2410 ha         1 0B6       0.150000
     39 H11         -0.3500    -0.4410    -0.5970 ha         1 0B6       0.137000
     40 H12          1.8020    -0.0550    -0.1990 hn         1 0B6       0.185000
     41 H13          5.6620     1.9970     0.7160 ha         1 0B6       0.158000
     42 H14          7.5470     0.3560     0.7560 ha         1 0B6       0.139000
     43 H15          4.6650    -2.7460    -0.1660 h4         1 0B6       0.037100
@<TRIPOS>BOND
     1     1     2 1   
     2     2     3 ar  
     3     2    14 ar  
     4     3     4 1   
     5     3    17 ar  
     6     4     5 1   
     7     4    12 1   
     8     4    13 1   
     9     5     6 2   
    10     6     7 1   
    11     6     8 1   
    12     7    29 1   
    13     7    30 1   
    14     8     9 1   
    15     9    10 1   
    16     9    12 2   
    17    10    11 1   
    18    10    31 1   
    19    10    32 1   
    20    12    33 1   
    21    13    34 1   
    22    13    35 1   
    23    13    36 1   
    24    14    15 ar  
    25    14    37 1   
    26    15    16 ar  
    27    15    38 1   
    28    16    17 ar  
    29    16    18 1   
    30    17    39 1   
    31    18    19 1   
    32    18    40 1   
    33    19    20 2   
    34    19    21 1   
    35    21    22 ar  
    36    21    26 ar  
    37    22    23 ar  
    38    22    41 1   
    39    23    24 ar  
    40    23    42 1   
    41    24    25 ar  
    42    24    27 1   
    43    25    26 ar  
    44    25    43 1   
    45    27    28 3   
@<TRIPOS>SUBSTRUCTURE
     1 0B6         1 TEMP              0 ****  ****    0 ROOT
