@<TRIPOS>MOLECULE
0B7
   45    48     1     0     0
SMALL
No Charge or Current Charge


@<TRIPOS>ATOM
      1 C02         20.8300    16.1020    -6.9300 ce         1 0B7       0.684800
      2 C04         20.0620    17.3270    -6.7920 cc         1 0B7      -0.281900
      3 C05         20.4730    18.6210    -7.0000 cd         1 0B7      -0.066000
      4 C06         19.4840    19.6310    -6.7820 cd         1 0B7      -0.060000
      5 C07         18.2830    19.0790    -6.3600 cc         1 0B7      -0.218300
      6 C08         16.9620    19.7590    -6.0850 c3         1 0B7       0.175300
      7 C10         14.7730    18.6500    -5.4160 c          1 0B7       0.612700
      8 C12         14.9720    18.8520    -3.9260 ca         1 0B7      -0.130600
      9 C13         16.2060    18.5700    -3.2780 ca         1 0B7      -0.097000
     10 C14         16.3000    18.7600    -1.8930 ca         1 0B7      -0.061200
     11 C15         15.2320    19.1900    -1.1610 ca         1 0B7      -0.078800
     12 C16         15.6570    19.2700     0.2020 cc         1 0B7      -0.241200
     13 C17         16.9890    18.8750     0.2380 cd         1 0B7      -0.151100
     14 C19         13.9900    19.4540    -1.7440 ca         1 0B7      -0.069000
     15 C20         13.8650    19.2740    -3.1380 ca         1 0B7      -0.097000
     16 C22         19.8030    21.0800    -6.8980 ca         1 0B7      -0.022000
     17 C23         20.8370    21.5000    -7.7690 ca         1 0B7      -0.100000
     18 C24         21.1670    22.8590    -7.9030 ca         1 0B7      -0.110000
     19 C25         20.4770    23.8280    -7.1610 ca         1 0B7      -0.105000
     20 C26         19.4610    23.4320    -6.2800 ca         1 0B7      -0.110000
     21 C27         19.1290    22.0720    -6.1480 ca         1 0B7      -0.100000
     22 N01         20.2680    14.9090    -6.6630 nv         1 0B7      -1.084200
     23 N03         22.0380    16.1190    -7.3090 n2         1 0B7      -0.815100
     24 N09         15.8020    18.8890    -6.3020 ns         1 0B7      -0.516900
     25 N18         17.4030    18.5500    -1.0790 na         1 0B7      -0.231700
     26 O11         13.7160    18.2230    -5.8570 o          1 0B7      -0.593100
     27 S21         18.3790    17.3160    -6.3020 ss         1 0B7       0.240000
     28 H051        21.4950    18.8490    -7.2890 ha         1 0B7       0.155000
     29 H082        16.9530    20.1690    -5.0690 h1         1 0B7       0.068700
     30 H081        16.8590    20.6090    -6.7730 h1         1 0B7       0.068700
     31 H131        17.0620    18.1940    -3.8290 ha         1 0B7       0.119000
     32 H161        15.0620    19.5780     1.0600 ha         1 0B7       0.208000
     33 H171        17.6640    18.8010     1.0890 h4         1 0B7       0.214000
     34 H191        13.1460    19.7850    -1.1430 ha         1 0B7       0.121000
     35 H201        12.9050    19.4710    -3.6120 ha         1 0B7       0.129000
     36 H231        21.3750    20.7770    -8.3760 ha         1 0B7       0.115500
     37 H241        21.9570    23.1610    -8.5880 ha         1 0B7       0.115000
     38 H251        20.7340    24.8800    -7.2620 ha         1 0B7       0.114000
     39 H261        18.9350    24.1780    -5.6890 ha         1 0B7       0.115000
     40 H271        18.3730    21.8060    -5.4200 ha         1 0B7       0.115500
     41 H011        19.3890    14.9470    -6.1630 hn         1 0B7       0.465000
     42 H031        22.2940    15.1630    -7.5780 hn         1 0B7       0.371400
     43 H091        15.5920    18.6460    -7.2610 hn         1 0B7       0.317500
     44 H181        18.3230    18.2280    -1.3680 hn         1 0B7       0.350000
     45 H012        20.8990    14.1700    -6.3750 hn         1 0B7       0.465000
@<TRIPOS>BOND
     1     1     2 1   
     2     1    22 1   
     3     1    23 2   
     4     2     3 2   
     5     2    27 1   
     6     3     4 1   
     7     3    28 1   
     8     4     5 2   
     9     4    16 1   
    10     5     6 1   
    11     5    27 1   
    12     6    24 1   
    13     6    29 1   
    14     6    30 1   
    15     7     8 1   
    16     7    24 1   
    17     7    26 2   
    18     8     9 ar  
    19     8    15 ar  
    20     9    10 ar  
    21     9    31 1   
    22    10    11 ar  
    23    10    25 1   
    24    11    12 1   
    25    11    14 ar  
    26    12    13 2   
    27    12    32 1   
    28    13    25 1   
    29    13    33 1   
    30    14    15 ar  
    31    14    34 1   
    32    15    35 1   
    33    16    17 ar  
    34    16    21 ar  
    35    17    18 ar  
    36    17    36 1   
    37    18    19 ar  
    38    18    37 1   
    39    19    20 ar  
    40    19    38 1   
    41    20    21 ar  
    42    20    39 1   
    43    21    40 1   
    44    22    41 1   
    45    22    45 1   
    46    23    42 1   
    47    24    43 1   
    48    25    44 1   
@<TRIPOS>SUBSTRUCTURE
     1 0B7         1 TEMP              0 ****  ****    0 ROOT
