@<TRIPOS>MOLECULE
0B7
   45    48     1     0     0
SMALL
abcg2


@<TRIPOS>ATOM
      1 C02         20.7950    16.0980    -6.8770 ce         1 0B7       0.684800
      2 C04         20.0210    17.3460    -6.7460 cc         1 0B7      -0.281900
      3 C05         20.4870    18.6240    -6.8830 cd         1 0B7      -0.066000
      4 C06         19.4900    19.6250    -6.6890 cd         1 0B7      -0.060000
      5 C07         18.2570    19.0720    -6.4080 cc         1 0B7      -0.218300
      6 C08         16.9470    19.7690    -6.1710 c3         1 0B7       0.175300
      7 C10         14.8150    18.6080    -5.4740 c          1 0B7       0.612700
      8 C12         15.0560    18.8540    -4.0220 ca         1 0B7      -0.130600
      9 C13         16.2340    18.4560    -3.4000 ca         1 0B7      -0.097000
     10 C14         16.3450    18.6600    -2.0290 ca         1 0B7      -0.061200
     11 C15         15.3130    19.2690    -1.2630 ca         1 0B7      -0.078800
     12 C16         15.7770    19.3190     0.0900 cc         1 0B7      -0.241200
     13 C17         17.0290    18.7580     0.1030 cd         1 0B7      -0.151100
     14 C19         14.1340    19.6620    -1.9150 ca         1 0B7      -0.069000
     15 C20         14.0120    19.4420    -3.2730 ca         1 0B7      -0.097000
     16 C22         19.7710    21.0680    -6.8050 ca         1 0B7      -0.022000
     17 C23         20.6190    21.5340    -7.8190 ca         1 0B7      -0.100000
     18 C24         20.8980    22.8880    -7.9490 ca         1 0B7      -0.110000
     19 C25         20.3370    23.8070    -7.0650 ca         1 0B7      -0.105000
     20 C26         19.5010    23.3570    -6.0490 ca         1 0B7      -0.110000
     21 C27         19.2230    22.0010    -5.9180 ca         1 0B7      -0.100000
     22 N01         20.2450    15.0000    -6.2630 nv         1 0B7      -1.084200
     23 N03         21.8750    16.1050    -7.5760 n2         1 0B7      -0.815100
     24 N09         15.7990    18.9000    -6.3640 ns         1 0B7      -0.516900
     25 N18         17.3710    18.3580    -1.1670 na         1 0B7      -0.231700
     26 O11         13.7460    18.1290    -5.8640 o          1 0B7      -0.593100
     27 S21         18.3240    17.3480    -6.3960 ss         1 0B7       0.240000
     28 H051        21.5230    18.8460    -7.0930 ha         1 0B7       0.155000
     29 H082        16.9010    20.1680    -5.1600 h1         1 0B7       0.068700
     30 H081        16.8730    20.6230    -6.8490 h1         1 0B7       0.068700
     31 H131        17.0340    17.9800    -3.9520 ha         1 0B7       0.119000
     32 H161        15.2520    19.7160     0.9430 ha         1 0B7       0.208000
     33 H171        17.7120    18.6060     0.9230 h4         1 0B7       0.214000
     34 H191        13.3290    20.1280    -1.3620 ha         1 0B7       0.121000
     35 H201        13.1050    19.7280    -3.7890 ha         1 0B7       0.129000
     36 H231        21.0500    20.8280    -8.5180 ha         1 0B7       0.115500
     37 H241        21.5500    23.2270    -8.7440 ha         1 0B7       0.115000
     38 H251        20.5530    24.8630    -7.1670 ha         1 0B7       0.114000
     39 H261        19.0690    24.0610    -5.3490 ha         1 0B7       0.115000
     40 H271        18.5970    21.6650    -5.1020 ha         1 0B7       0.115500
     41 H011        19.6630    15.1410    -5.4510 hn         1 0B7       0.465000
     42 H031        22.3350    15.1960    -7.5380 hn         1 0B7       0.371400
     43 H091        15.5610    18.6800    -7.3220 hn         1 0B7       0.317500
     44 H181        18.2450    17.9310    -1.4240 hn         1 0B7       0.350000
     45 H012        20.8020    14.1590    -6.2370 hn         1 0B7       0.465000
@<TRIPOS>BOND
     1     1     2 1   
     2     1    22 1   
     3     1    23 2   
     4     2     3 2   
     5     2    27 1   
     6     3     4 1   
     7     3    28 1   
     8     4     5 2   
     9     4    16 1   
    10     5     6 1   
    11     5    27 1   
    12     6    24 1   
    13     6    29 1   
    14     6    30 1   
    15     7     8 1   
    16     7    24 1   
    17     7    26 2   
    18     8     9 ar  
    19     8    15 ar  
    20     9    10 ar  
    21     9    31 1   
    22    10    11 ar  
    23    10    25 1   
    24    11    12 1   
    25    11    14 ar  
    26    12    13 2   
    27    12    32 1   
    28    13    25 1   
    29    13    33 1   
    30    14    15 ar  
    31    14    34 1   
    32    15    35 1   
    33    16    17 ar  
    34    16    21 ar  
    35    17    18 ar  
    36    17    36 1   
    37    18    19 ar  
    38    18    37 1   
    39    19    20 ar  
    40    19    38 1   
    41    20    21 ar  
    42    20    39 1   
    43    21    40 1   
    44    22    41 1   
    45    22    45 1   
    46    23    42 1   
    47    24    43 1   
    48    25    44 1   
@<TRIPOS>SUBSTRUCTURE
     1 0B7         1 TEMP              0 ****  ****    0 ROOT
