@<TRIPOS>MOLECULE
0B8
   77    83     1     0     0
SMALL
No Charge or Current Charge


@<TRIPOS>ATOM
      1 C13         -2.6240    -1.1310    83.2520 ca         1 0B8       0.143600
      2 C15         -0.9110    -2.7780    82.6030 ca         1 0B8       0.083700
      3 C17         -4.9600    -1.2460    82.3980 c          1 0B8       0.621000
      4 C22         -0.4540    -4.0240    81.8260 c3         1 0B8      -0.054800
      5 C1           3.7690    -2.2320    86.7330 c6         1 0B8      -0.075200
      6 C2           2.6840    -2.4490    87.8090 c6         1 0B8      -0.063400
      7 C3           1.8070    -3.6570    87.4220 c6         1 0B8      -0.183400
      8 C4           1.2070    -3.5280    86.0170 c          1 0B8       0.606300
      9 C5           2.0040    -2.7910    85.0000 ce         1 0B8      -0.487400
     10 C6           3.1720    -2.2060    85.3360 c2         1 0B8       0.285900
     11 C9          -0.0070    -2.1730    83.5160 ca         1 0B8      -0.178600
     12 C11         -0.4390    -1.1210    84.3350 ca         1 0B8      -0.012000
     13 C12         -1.7320    -0.6180    84.2150 ca         1 0B8      -0.174000
     14 C14         -2.2410    -2.2510    82.4780 ca         1 0B8      -0.210600
     15 C19         -3.2820    -2.8510    81.5520 c          1 0B8       0.603600
     16 C25         -6.5000    -3.9860    81.6210 c          1 0B8       0.584100
     17 C29         -8.9180    -3.3500    83.5970 c3         1 0B8       0.139600
     18 C31         -7.4110    -2.2700    85.2420 ca         1 0B8       0.175100
     19 C32         -6.1050    -2.1550    85.7770 ca         1 0B8      -0.066000
     20 C33         -5.8070    -1.1060    86.6790 ca         1 0B8       0.008000
     21 C34         -6.8080    -0.1820    87.0480 ca         1 0B8      -0.079000
     22 C35         -8.1060    -0.3100    86.5270 ca         1 0B8      -0.054000
     23 C36         -8.4080    -1.3470    85.6310 ca         1 0B8      -0.189000
     24 C37         -4.5040    -0.9720    87.2080 ca         1 0B8      -0.035000
     25 C38         -4.2050     0.0860    88.0970 ca         1 0B8      -0.031000
     26 C39         -5.2090     1.0020    88.4570 ca         1 0B8      -0.113000
     27 C40         -6.5070     0.8680    87.9360 ca         1 0B8      -0.084000
     28 C41         -3.4960    -1.8880    86.8450 ca         1 0B8      -0.017000
     29 C42         -2.2010    -1.7510    87.3760 ca         1 0B8      -0.101000
     30 C43         -1.9040    -0.6980    88.2570 ca         1 0B8      -0.110000
     31 C44         -2.9050     0.2200    88.6160 ca         1 0B8      -0.112000
     32 C45         -5.0840    -3.0640    85.4190 ca         1 0B8      -0.080000
     33 C46         -3.7900    -2.9310    85.9500 ca         1 0B8      -0.113000
     34 N16         -3.9660    -0.6240    83.1730 n          1 0B8      -0.294000
     35 N18         -4.5830    -2.3350    81.6100 n          1 0B8      -0.373400
     36 O7           3.9230    -1.5340    84.4580 oh         1 0B8      -0.541100
     37 O10          2.1870    -2.5410    82.6880 o          1 0B8      -0.598100
     38 O20         -3.0240    -3.7480    80.7630 o          1 0B8      -0.524000
     39 O23         -6.1140    -0.8380    82.3880 o          1 0B8      -0.558000
     40 O26         -7.8460    -3.7710    81.4560 os         1 0B8      -0.444100
     41 O27         -6.0180    -4.8360    82.3590 o          1 0B8      -0.462000
     42 O30         -7.6770    -3.2760    84.3300 os         1 0B8      -0.349100
     43 H1          -5.2560     1.0750    83.5020 h1         1 0B8       0.062367
     44 H2          -4.3590     0.5100    84.9300 h1         1 0B8       0.062367
     45 H3          -3.5230     1.4060    83.6300 h1         1 0B8       0.062367
     46 H4          -1.1500    -4.8570    81.9750 hc         1 0B8       0.060367
     47 H5          -0.3840    -3.8150    80.7520 hc         1 0B8       0.060367
     48 H6           0.5180    -4.4150    82.1390 hc         1 0B8       0.060367
     49 H7          -6.3320    -2.2510    80.3740 h1         1 0B8       0.100200
     50 H8          -5.2460    -3.5600    79.9430 h1         1 0B8       0.100200
     51 H9          -9.7520    -4.4690    81.9540 h1         1 0B8       0.076200
     52 H10         -8.4420    -5.3280    82.7760 h1         1 0B8       0.076200
     53 H11          4.5150    -3.0360    86.7870 hc         1 0B8       0.082200
     54 H12          4.3060    -1.2950    86.9350 hc         1 0B8       0.082200
     55 H13          3.1470    -2.6080    88.7930 hc         1 0B8       0.057200
     56 H14          2.0570    -1.5490    87.8940 hc         1 0B8       0.057200
     57 H15          1.0140    -3.8690    88.1510 hc         1 0B8       0.074700
     58 H16          2.4620    -4.5380    87.3910 hc         1 0B8       0.074700
     59 H19          0.2390    -0.6720    85.0590 ha         1 0B8       0.120000
     60 H20         -2.0190     0.1900    84.8810 ha         1 0B8       0.131000
     61 H21         -9.1840    -2.3690    83.1830 h1         1 0B8       0.053700
     62 H22         -9.7330    -3.6810    84.2540 h1         1 0B8       0.053700
     63 H23         -8.8830     0.3970    86.8120 ha         1 0B8       0.113000
     64 H24         -9.4210    -1.4160    85.2490 ha         1 0B8       0.117000
     65 H25         -4.9870     1.8180    89.1400 ha         1 0B8       0.112000
     66 H26         -7.2750     1.5820    88.2220 ha         1 0B8       0.111000
     67 H27         -1.4220    -2.4570    87.1050 ha         1 0B8       0.129000
     68 H28         -0.9000    -0.5950    88.6620 ha         1 0B8       0.107000
     69 H29         -2.6680     1.0330    89.3000 ha         1 0B8       0.111000
     70 H30         -5.2870    -3.8800    84.7300 ha         1 0B8       0.146000
     71 H31         -3.0140    -3.6370    85.6610 ha         1 0B8       0.136000
     72 H32          3.5080    -1.7210    83.5790 ho         1 0B8       0.549000
     73 C21         -4.3010     0.6620    83.8460 c3         1 0B8       0.082300
     74 C24         -5.6560    -3.0050    80.7950 c3         1 0B8       0.043000
     75 C8           1.4280    -2.6050    83.6490 c          1 0B8       0.640900
     76 O47          0.1260    -4.0330    85.7580 o          1 0B8      -0.545100
     77 C28         -8.7650    -4.3420    82.4170 c3         1 0B8       0.159600
@<TRIPOS>BOND
     1     1    13 ar  
     2     1    14 ar  
     3     1    34 1   
     4     2     4 1   
     5     2    11 ar  
     6     2    14 ar  
     7     3    34 1   
     8     3    35 1   
     9     3    39 2   
    10     4    46 1   
    11     4    47 1   
    12     4    48 1   
    13     5     6 1   
    14     5    10 1   
    15     5    53 1   
    16     5    54 1   
    17     6     7 1   
    18     6    55 1   
    19     6    56 1   
    20     7     8 1   
    21     7    57 1   
    22     7    58 1   
    23     8     9 1   
    24     8    76 2   
    25     9    10 2   
    26     9    75 1   
    27    10    36 1   
    28    11    12 ar  
    29    11    75 1   
    30    12    13 ar  
    31    12    59 1   
    32    13    60 1   
    33    14    15 1   
    34    15    35 1   
    35    15    38 2   
    36    16    40 1   
    37    16    41 2   
    38    16    74 1   
    39    17    42 1   
    40    17    61 1   
    41    17    62 1   
    42    17    77 1   
    43    18    19 ar  
    44    18    23 ar  
    45    18    42 1   
    46    19    20 ar  
    47    19    32 ar  
    48    20    21 ar  
    49    20    24 ar  
    50    21    22 ar  
    51    21    27 ar  
    52    22    23 ar  
    53    22    63 1   
    54    23    64 1   
    55    24    25 ar  
    56    24    28 ar  
    57    25    26 ar  
    58    25    31 ar  
    59    26    27 ar  
    60    26    65 1   
    61    27    66 1   
    62    28    29 ar  
    63    28    33 ar  
    64    29    30 ar  
    65    29    67 1   
    66    30    31 ar  
    67    30    68 1   
    68    31    69 1   
    69    32    33 ar  
    70    32    70 1   
    71    33    71 1   
    72    34    73 1   
    73    35    74 1   
    74    36    72 1   
    75    37    75 2   
    76    40    77 1   
    77    43    73 1   
    78    44    73 1   
    79    45    73 1   
    80    49    74 1   
    81    50    74 1   
    82    51    77 1   
    83    52    77 1   
@<TRIPOS>SUBSTRUCTURE
     1 0B8         1 TEMP              0 ****  ****    0 ROOT
