@<TRIPOS>MOLECULE
0B8
   77    83     1     0     0
SMALL
abcg2


@<TRIPOS>ATOM
      1 C13         -2.7940    -0.8770    83.3380 ca         1 0B8       0.143600
      2 C15         -0.9070    -2.3930    82.9490 ca         1 0B8       0.083700
      3 C17         -5.0050    -1.3120    82.4440 c          1 0B8       0.621000
      4 C22         -0.2860    -3.6320    82.3680 c3         1 0B8      -0.054800
      5 C1           3.8510    -3.2980    86.4500 c6         1 0B8      -0.075200
      6 C2           2.8640    -3.5080    87.5910 c6         1 0B8      -0.063400
      7 C3           1.6050    -4.1780    87.0600 c6         1 0B8      -0.183400
      8 C4           0.9790    -3.4630    85.8790 c          1 0B8       0.606300
      9 C5           1.8440    -2.6090    85.0530 ce         1 0B8      -0.487400
     10 C6           3.2200    -2.5910    85.3020 c2         1 0B8       0.285900
     11 C9          -0.1250    -1.5620    83.7450 ca         1 0B8      -0.178600
     12 C11         -0.6560    -0.4070    84.3140 ca         1 0B8      -0.012000
     13 C12         -1.9750    -0.0600    84.1190 ca         1 0B8      -0.174000
     14 C14         -2.2610    -2.0400    82.7420 ca         1 0B8      -0.210600
     15 C19         -3.1410    -2.8670    81.9120 c          1 0B8       0.603600
     16 C25         -6.2240    -4.1470    81.8940 c          1 0B8       0.584100
     17 C29         -8.7820    -3.5860    83.7230 c3         1 0B8       0.139600
     18 C31         -7.4170    -2.3220    85.2640 ca         1 0B8       0.175100
     19 C32         -6.1120    -2.1390    85.7680 ca         1 0B8      -0.066000
     20 C33         -5.8460    -0.9990    86.5710 ca         1 0B8       0.008000
     21 C34         -6.8750    -0.0540    86.8450 ca         1 0B8      -0.079000
     22 C35         -8.1500    -0.2850    86.3250 ca         1 0B8      -0.054000
     23 C36         -8.4240    -1.4050    85.5500 ca         1 0B8      -0.189000
     24 C37         -4.5350    -0.7850    87.0810 ca         1 0B8      -0.035000
     25 C38         -4.2520     0.3750    87.8580 ca         1 0B8      -0.031000
     26 C39         -5.3120     1.3070    88.1180 ca         1 0B8      -0.113000
     27 C40         -6.5630     1.0990    87.6350 ca         1 0B8      -0.084000
     28 C41         -3.4960    -1.7140    86.7950 ca         1 0B8      -0.017000
     29 C42         -2.2110    -1.4790    87.2980 ca         1 0B8      -0.101000
     30 C43         -1.9460    -0.3480    88.0570 ca         1 0B8      -0.110000
     31 C44         -2.9510     0.5730    88.3340 ca         1 0B8      -0.112000
     32 C45         -5.0460    -3.0500    85.4800 ca         1 0B8      -0.080000
     33 C46         -3.7970    -2.8470    85.9720 ca         1 0B8      -0.113000
     34 N16         -4.1330    -0.5400    83.1650 n          1 0B8      -0.294000
     35 N18         -4.4680    -2.4380    81.8250 n          1 0B8      -0.373400
     36 O7           4.0470    -1.9380    84.5330 oh         1 0B8      -0.541100
     37 O10          2.1170    -1.1860    83.2030 o          1 0B8      -0.598100
     38 O20         -2.7970    -3.8720    81.3070 o          1 0B8      -0.524000
     39 O23         -6.1920    -1.0480    82.3230 o          1 0B8      -0.558000
     40 O26         -7.5320    -3.9540    81.7020 os         1 0B8      -0.444100
     41 O27         -5.7410    -4.9490    82.6550 o          1 0B8      -0.462000
     42 O30         -7.6010    -3.4340    84.5080 os         1 0B8      -0.349100
     43 H1          -5.7200     0.7310    83.5680 h1         1 0B8       0.062367
     44 H2          -4.4930     0.6800    84.8410 h1         1 0B8       0.062367
     45 H3          -4.1650     1.5560    83.3280 h1         1 0B8       0.062367
     46 H4          -0.8310    -4.5230    82.6750 hc         1 0B8       0.060367
     47 H5          -0.3040    -3.6120    81.2780 hc         1 0B8       0.060367
     48 H6           0.7480    -3.7330    82.6920 hc         1 0B8       0.060367
     49 H7          -6.0390    -2.5490    80.4560 h1         1 0B8       0.100200
     50 H8          -4.8060    -3.8320    80.3360 h1         1 0B8       0.100200
     51 H9          -9.3600    -4.7810    82.0410 h1         1 0B8       0.076200
     52 H10         -8.0460    -5.4940    83.0140 h1         1 0B8       0.076200
     53 H11          4.2110    -4.2650    86.0760 hc         1 0B8       0.082200
     54 H12          4.7310    -2.7310    86.7560 hc         1 0B8       0.082200
     55 H13          3.3200    -4.1170    88.3710 hc         1 0B8       0.057200
     56 H14          2.6110    -2.5420    88.0350 hc         1 0B8       0.057200
     57 H15          0.8350    -4.2760    87.8250 hc         1 0B8       0.074700
     58 H16          1.8420    -5.1920    86.7140 hc         1 0B8       0.074700
     59 H19         -0.0300     0.2220    84.9340 ha         1 0B8       0.120000
     60 H20         -2.3620     0.8280    84.5900 ha         1 0B8       0.131000
     61 H21         -9.0750    -2.6290    83.2870 h1         1 0B8       0.053700
     62 H22         -9.6040    -3.9670    84.3350 h1         1 0B8       0.053700
     63 H23         -8.9420     0.4240    86.5330 ha         1 0B8       0.113000
     64 H24         -9.4250    -1.5570    85.1720 ha         1 0B8       0.117000
     65 H25         -5.0890     2.1860    88.7100 ha         1 0B8       0.112000
     66 H26         -7.3540     1.8120    87.8370 ha         1 0B8       0.111000
     67 H27         -1.4230    -2.1810    87.0630 ha         1 0B8       0.129000
     68 H28         -0.9440    -0.1750    88.4290 ha         1 0B8       0.107000
     69 H29         -2.7340     1.4570    88.9210 ha         1 0B8       0.111000
     70 H30         -5.2520    -3.9000    84.8450 ha         1 0B8       0.146000
     71 H31         -2.9960    -3.5340    85.7350 ha         1 0B8       0.136000
     72 H32          3.4790    -1.5130    83.7980 ho         1 0B8       0.549000
     73 C21         -4.6570     0.6880    83.7660 c3         1 0B8       0.082300
     74 C24         -5.3980    -3.2210    81.0130 c3         1 0B8       0.043000
     75 C8           1.3370    -1.8010    83.9610 c          1 0B8       0.640900
     76 O47         -0.2040    -3.6520    85.6220 o          1 0B8      -0.545100
     77 C28         -8.4640    -4.5700    82.6220 c3         1 0B8       0.159600
@<TRIPOS>BOND
     1     1    13 ar  
     2     1    14 ar  
     3     1    34 1   
     4     2     4 1   
     5     2    11 ar  
     6     2    14 ar  
     7     3    34 1   
     8     3    35 1   
     9     3    39 2   
    10     4    46 1   
    11     4    47 1   
    12     4    48 1   
    13     5     6 1   
    14     5    10 1   
    15     5    53 1   
    16     5    54 1   
    17     6     7 1   
    18     6    55 1   
    19     6    56 1   
    20     7     8 1   
    21     7    57 1   
    22     7    58 1   
    23     8     9 1   
    24     8    76 2   
    25     9    10 2   
    26     9    75 1   
    27    10    36 1   
    28    11    12 ar  
    29    11    75 1   
    30    12    13 ar  
    31    12    59 1   
    32    13    60 1   
    33    14    15 1   
    34    15    35 1   
    35    15    38 2   
    36    16    40 1   
    37    16    41 2   
    38    16    74 1   
    39    17    42 1   
    40    17    61 1   
    41    17    62 1   
    42    17    77 1   
    43    18    19 ar  
    44    18    23 ar  
    45    18    42 1   
    46    19    20 ar  
    47    19    32 ar  
    48    20    21 ar  
    49    20    24 ar  
    50    21    22 ar  
    51    21    27 ar  
    52    22    23 ar  
    53    22    63 1   
    54    23    64 1   
    55    24    25 ar  
    56    24    28 ar  
    57    25    26 ar  
    58    25    31 ar  
    59    26    27 ar  
    60    26    65 1   
    61    27    66 1   
    62    28    29 ar  
    63    28    33 ar  
    64    29    30 ar  
    65    29    67 1   
    66    30    31 ar  
    67    30    68 1   
    68    31    69 1   
    69    32    33 ar  
    70    32    70 1   
    71    33    71 1   
    72    34    73 1   
    73    35    74 1   
    74    36    72 1   
    75    37    75 2   
    76    40    77 1   
    77    43    73 1   
    78    44    73 1   
    79    45    73 1   
    80    49    74 1   
    81    50    74 1   
    82    51    77 1   
    83    52    77 1   
@<TRIPOS>SUBSTRUCTURE
     1 0B8         1 TEMP              0 ****  ****    0 ROOT
