@<TRIPOS>MOLECULE
0B9
   55    59     1     0     0
SMALL
bcc


@<TRIPOS>ATOM
      1 N1         -14.0980     6.8750   -18.3340 nh         1 0B9      -0.782300
      2 N3         -13.5880     9.1090   -11.7100 nu         1 0B9      -0.760600
      3 C4         -11.8340     6.0400   -18.0800 c6         1 0B9      -0.098400
      4 C5         -11.6630     6.8740   -16.8160 c6         1 0B9      -0.088400
      5 C6         -13.0050     7.1770   -16.1540 c6         1 0B9       0.087700
      6 C8         -13.2420     9.4050   -13.0700 c3         1 0B9       0.194500
      7 C10        -15.3680    10.8240   -13.7160 cx         1 0B9      -0.122400
      8 C13        -13.4860     7.8960    -9.6590 ca         1 0B9      -0.257000
      9 C15        -11.8440     6.1310    -9.3340 ca         1 0B9      -0.222000
     10 C17        -11.9570     7.3400   -11.4450 ca         1 0B9      -0.229000
     11 C20        -17.4290     5.3510   -18.4120 ca         1 0B9       0.467800
     12 C21        -17.9870     5.8010   -16.3100 cc         1 0B9      -0.130100
     13 C22        -16.7260     6.2950   -16.4650 cd         1 0B9      -0.155200
     14 C1         -16.3460     6.0290   -17.8230 ca         1 0B9      -0.378400
     15 C11        -14.3780    11.0610   -14.8160 cx         1 0B9      -0.122400
     16 C12        -13.0190     8.1220   -10.9650 ca         1 0B9       0.240600
     17 C14        -12.8910     6.9230    -8.8930 ca         1 0B9       0.193900
     18 C16        -11.4040     6.3720   -10.6240 ca         1 0B9       0.102400
     19 C18        -13.9710     7.7530   -17.1960 c6         1 0B9       0.206800
     20 C19        -16.3540     5.0330   -20.3050 ca         1 0B9       0.702900
     21 C2         -15.2210     6.1990   -18.6680 ca         1 0B9       0.773200
     22 C3         -12.8400     6.6730   -19.0340 c6         1 0B9       0.221800
     23 C9         -13.8970    10.7230   -13.4410 cx         1 0B9      -0.152700
     24 F1         -13.3450     6.7310    -7.6460 f          1 0B9      -0.140900
     25 N2         -12.8030     8.1140   -15.0690 ns         1 0B9      -0.569900
     26 N4         -15.2590     5.6600   -19.8920 nb         1 0B9      -0.832000
     27 N5         -17.4790     4.8510   -19.6480 nb         1 0B9      -0.755000
     28 N6         -18.4090     5.2430   -17.4870 na         1 0B9      -0.267100
     29 O1         -14.6250     7.5810   -13.8340 o          1 0B9      -0.591100
     30 CL1        -10.1030     5.4100   -11.2460 cl         1 0B9      -0.112400
     31 H2         -12.1720     5.0320   -17.8230 hc         1 0B9       0.055700
     32 H3         -10.8710     5.9340   -18.5850 hc         1 0B9       0.055700
     33 H4         -11.0050     6.3670   -16.1060 hc         1 0B9       0.045700
     34 H5         -11.1800     7.8220   -17.0800 hc         1 0B9       0.045700
     35 H6         -13.4290     6.2560   -15.7450 h1         1 0B9       0.090700
     36 H7         -12.1580     9.5540   -13.1360 h1         1 0B9       0.066700
     37 H8         -15.8990    11.6730   -13.3070 hc         1 0B9       0.080450
     38 H9         -15.9520     9.9120   -13.7520 hc         1 0B9       0.080450
     39 H10        -14.3000     8.4840    -9.2550 ha         1 0B9       0.151000
     40 H11        -11.4030     5.3710    -8.7040 ha         1 0B9       0.166000
     41 H12        -11.5640     7.4720   -12.4430 ha         1 0B9       0.146000
     42 H13        -18.6230     5.7980   -15.4400 h4         1 0B9       0.168000
     43 H14        -16.1520     6.7560   -15.6800 ha         1 0B9       0.173000
     44 H15        -14.3040    10.3240   -15.6040 hc         1 0B9       0.080450
     45 H16        -14.2230    12.0760   -15.1570 hc         1 0B9       0.080450
     46 H17        -13.5660     8.7090   -17.5490 h1         1 0B9       0.058700
     47 H18        -14.9430     7.9740   -16.7650 h1         1 0B9       0.058700
     48 H19        -16.3110     4.6290   -21.3120 h5         1 0B9       0.042100
     49 H20        -12.4690     7.6410   -19.3870 h1         1 0B9       0.067200
     50 H21        -13.0060     6.0470   -19.9040 h1         1 0B9       0.067200
     51 H22        -13.4680    11.5490   -12.8840 hc         1 0B9       0.090700
     52 H23        -12.0260     8.7520   -15.1540 hn         1 0B9       0.313500
     53 H24        -19.2960     4.7900   -17.6380 hn         1 0B9       0.310700
     54 C7         -13.6340     8.2680   -14.0270 c          1 0B9       0.639100
     55 H1         -14.4650     9.4820   -11.3820 hn         1 0B9       0.443800
@<TRIPOS>BOND
     1     1    19 1   
     2     1    21 1   
     3     1    22 1   
     4     2     6 1   
     5     2    16 1   
     6     2    55 1   
     7     3     4 1   
     8     3    22 1   
     9     3    31 1   
    10     3    32 1   
    11     4     5 1   
    12     4    33 1   
    13     4    34 1   
    14     5    19 1   
    15     5    25 1   
    16     5    35 1   
    17     6    23 1   
    18     6    36 1   
    19     6    54 1   
    20     7    15 1   
    21     7    23 1   
    22     7    37 1   
    23     7    38 1   
    24     8    16 ar  
    25     8    17 ar  
    26     8    39 1   
    27     9    17 ar  
    28     9    18 ar  
    29     9    40 1   
    30    10    16 ar  
    31    10    18 ar  
    32    10    41 1   
    33    11    14 ar  
    34    11    27 ar  
    35    11    28 1   
    36    12    13 2   
    37    12    28 1   
    38    12    42 1   
    39    13    14 1   
    40    13    43 1   
    41    14    21 ar  
    42    15    23 1   
    43    15    44 1   
    44    15    45 1   
    45    17    24 1   
    46    18    30 1   
    47    19    46 1   
    48    19    47 1   
    49    20    26 ar  
    50    20    27 ar  
    51    20    48 1   
    52    21    26 ar  
    53    22    49 1   
    54    22    50 1   
    55    23    51 1   
    56    25    52 1   
    57    25    54 1   
    58    28    53 1   
    59    29    54 2   
@<TRIPOS>SUBSTRUCTURE
     1 0B9         1 TEMP              0 ****  ****    0 ROOT
