@<TRIPOS>MOLECULE
0B9
   55    59     1     0     0
SMALL
No Charge or Current Charge


@<TRIPOS>ATOM
      1 N1         -14.0890     6.3190   -18.0660 nh         1 0B9      -0.782300
      2 N3         -13.3960     9.3940   -11.5910 nu         1 0B9      -0.954200
      3 C4         -11.6740     5.7400   -17.7600 c6         1 0B9      -0.098400
      4 C5         -11.5390     6.8590   -16.6970 c6         1 0B9      -0.088400
      5 C6         -12.8940     7.0980   -15.9890 c6         1 0B9       0.087700
      6 C8         -13.2840     9.6620   -13.0520 c3         1 0B9       0.194500
      7 C10        -15.5620    10.8850   -13.7590 cx         1 0B9      -0.122400
      8 C13        -13.4510     7.8100    -9.7860 ca         1 0B9      -0.239000
      9 C15        -11.6720     6.1740    -9.5200 ca         1 0B9      -0.204000
     10 C17        -11.5930     7.7770   -11.3430 ca         1 0B9      -0.211000
     11 C20        -17.6810     5.5750   -18.6690 ca         1 0B9       0.139500
     12 C21        -18.1360     5.3190   -16.4140 cc         1 0B9      -0.180100
     13 C22        -16.7970     5.6180   -16.5910 cd         1 0B9      -0.205200
     14 C1         -16.5050     5.7890   -17.9960 ca         1 0B9      -0.247800
     15 C11        -14.5270    11.2550   -14.7970 cx         1 0B9      -0.122400
     16 C12        -12.8090     8.3300   -10.9140 ca         1 0B9       0.379000
     17 C14        -12.8820     6.7340    -9.0930 ca         1 0B9       0.229000
     18 C16        -11.0290     6.7000   -10.6480 ca         1 0B9       0.194000
     19 C18        -13.9850     7.4110   -17.0560 c6         1 0B9       0.206800
     20 C19        -16.5680     5.9100   -20.6370 ca         1 0B9       0.176900
     21 C2         -15.3260     6.0820   -18.7040 ca         1 0B9       0.444900
     22 C3         -12.8040     6.0470   -18.7750 c6         1 0B9       0.221800
     23 C9         -14.0940    10.9230   -13.3830 cx         1 0B9      -0.152700
     24 F1         -13.5060     6.2320    -8.0060 f          1 0B9      -0.176000
     25 N2         -12.7710     8.1890   -15.0100 ns         1 0B9      -0.502900
     26 N4         -15.3660     6.1340   -20.0530 nb         1 0B9      -0.306000
     27 N5         -17.7380     5.6330   -20.0110 nb         1 0B9      -0.229000
     28 N6         -18.6610     5.3030   -17.7250 na         1 0B9      -0.317400
     29 O1         -14.5860     7.6640   -13.7460 o          1 0B9      -0.591100
     30 Cl1         -9.5080     6.0070   -11.1920 cl         1 0B9      -0.204000
     31 H2         -11.8850     4.7830   -17.2620 hc         1 0B9       0.055700
     32 H3         -10.7230     5.6110   -18.2930 hc         1 0B9       0.055700
     33 H4         -10.7730     6.5820   -15.9600 hc         1 0B9       0.045700
     34 H5         -11.1950     7.7850   -17.1790 hc         1 0B9       0.045700
     35 H6         -13.1830     6.1800   -15.4560 h1         1 0B9       0.090700
     36 H7         -12.2350     9.9030   -13.2720 h1         1 0B9       0.066700
     37 H8         -16.2010    11.6790   -13.3770 hc         1 0B9       0.080450
     38 H9         -16.0540     9.9210   -13.8550 hc         1 0B9       0.080450
     39 H10        -14.3910     8.2310    -9.4440 ha         1 0B9       0.133000
     40 H11        -11.2360     5.3390    -8.9800 ha         1 0B9       0.148000
     41 H12        -11.0780     8.1780   -12.2090 ha         1 0B9       0.128000
     42 H13        -18.7230     5.1220   -15.5190 h4         1 0B9       0.218000
     43 H14        -16.0720     5.6950   -15.7820 ha         1 0B9       0.223000
     44 H15        -14.3350    10.5380   -15.5920 hc         1 0B9       0.080450
     45 H16        -14.4760    12.2950   -15.1100 hc         1 0B9       0.080450
     46 H17        -13.7360     8.3580   -17.5570 h1         1 0B9       0.058700
     47 H18        -14.9450     7.5690   -16.5460 h1         1 0B9       0.058700
     48 H19        -16.5980     5.9560   -21.7240 h5         1 0B9       0.042100
     49 H20        -12.5180     6.9140   -19.3900 h1         1 0B9       0.067200
     50 H21        -12.9070     5.1840   -19.4510 h1         1 0B9       0.067200
     51 H22        -13.7720    11.7710   -12.7810 hc         1 0B9       0.090700
     52 H23        -12.0040     8.8430   -15.1160 hn         1 0B9       0.313500
     53 H24        -19.6290     5.1120   -17.9630 hn         1 0B9       0.361000
     54 C7         -13.6340     8.4100   -13.9520 c          1 0B9       0.572100
     55 H1         -14.2530     9.7360   -11.1560 hn         1 0B9       0.499000
@<TRIPOS>BOND
     1     1    19 1   
     2     1    21 1   
     3     1    22 1   
     4     2     6 1   
     5     2    16 1   
     6     2    55 1   
     7     3     4 1   
     8     3    22 1   
     9     3    31 1   
    10     3    32 1   
    11     4     5 1   
    12     4    33 1   
    13     4    34 1   
    14     5    19 1   
    15     5    25 1   
    16     5    35 1   
    17     6    23 1   
    18     6    36 1   
    19     6    54 1   
    20     7    15 1   
    21     7    23 1   
    22     7    37 1   
    23     7    38 1   
    24     8    16 ar  
    25     8    17 ar  
    26     8    39 1   
    27     9    17 ar  
    28     9    18 ar  
    29     9    40 1   
    30    10    16 ar  
    31    10    18 ar  
    32    10    41 1   
    33    11    14 ar  
    34    11    27 ar  
    35    11    28 1   
    36    12    13 2   
    37    12    28 1   
    38    12    42 1   
    39    13    14 1   
    40    13    43 1   
    41    14    21 ar  
    42    15    23 1   
    43    15    44 1   
    44    15    45 1   
    45    17    24 1   
    46    18    30 1   
    47    19    46 1   
    48    19    47 1   
    49    20    26 ar  
    50    20    27 ar  
    51    20    48 1   
    52    21    26 ar  
    53    22    49 1   
    54    22    50 1   
    55    23    51 1   
    56    25    52 1   
    57    25    54 1   
    58    28    53 1   
    59    29    54 2   
@<TRIPOS>SUBSTRUCTURE
     1 0B9         1 TEMP              0 ****  ****    0 ROOT
