@<TRIPOS>MOLECULE
0BB
   46    49     1     0     0
SMALL
bcc


@<TRIPOS>ATOM
      1 C1           3.3780     0.5970     1.2510 c3         1 0BB       0.104000
      2 O1           0.8360    -0.2940     2.3960 o          1 0BB      -0.638500
      3 C3          -0.3570     2.7630    -1.0510 ca         1 0BB      -0.132000
      4 C4           0.4230     3.5170    -1.9260 ca         1 0BB      -0.144000
      5 C5           1.8120     3.4600    -1.8830 ca         1 0BB      -0.133000
      6 C6           2.4760     2.6470    -0.9670 ca         1 0BB      -0.120000
      7 C7           1.7010     1.9010    -0.1000 ca         1 0BB       0.022600
      8 C8           0.3050     1.9620    -0.1420 ca         1 0BB      -0.008400
      9 N9          -0.1600     1.1140     0.8440 n          1 0BB      -0.372000
     10 C10          0.9010     0.5160     1.4890 c          1 0BB       0.800500
     11 N11          2.0380     1.0230     0.9100 n          1 0BB      -0.347000
     12 C12          3.9100    -0.4870     0.3220 c3         1 0BB      -0.075400
     13 C13          5.3190    -0.8990     0.7120 c3         1 0BB      -0.208400
     14 C17         -1.5400     0.8550     1.1480 c3         1 0BB       0.187200
     15 C18         -2.1790    -0.1220     0.1970 cc         1 0BB      -0.112400
     16 C19         -3.5860    -0.4720     0.1810 ca         1 0BB      -0.049800
     17 C20         -3.8550    -1.4370    -0.8100 ca         1 0BB      -0.042100
     18 S21         -2.4290    -1.8800    -1.6840 ss         1 0BB      -0.052500
     19 C22         -1.4760    -0.7990    -0.7400 cd         1 0BB      -0.074400
     20 C23         -4.6560    -0.0060     0.9770 ca         1 0BB      -0.041300
     21 C24         -5.9150    -0.5320     0.7420 ca         1 0BB      -0.140000
     22 C25         -6.1570    -1.4910    -0.2460 ca         1 0BB      -0.126000
     23 C26         -5.1280    -1.9540    -1.0360 ca         1 0BB      -0.101000
     24 C34         -4.4910     1.0330     2.0500 c3         1 0BB      -0.048800
     25 C39          5.9550    -2.0030    -0.1530 c          1 0BB       0.930600
     26 O40          5.2700    -2.4860    -1.0750 o          1 0BB      -0.842800
     27 O41          7.1220    -2.3250     0.1500 o          1 0BB      -0.842800
     28 H1           4.0270     1.4750     1.2330 h1         1 0BB       0.052200
     29 H1A          3.3610     0.2430     2.2820 h1         1 0BB       0.052200
     30 H3          -1.4380     2.8050    -1.0930 ha         1 0BB       0.134000
     31 H4          -0.0660     4.1530    -2.6520 ha         1 0BB       0.122000
     32 H5           2.3930     4.0530    -2.5770 ha         1 0BB       0.127000
     33 H6           3.5570     2.6070    -0.9430 ha         1 0BB       0.152000
     34 H12          3.2380    -1.3480     0.3580 hc         1 0BB       0.052200
     35 H12A         3.8950    -0.1260    -0.7090 hc         1 0BB       0.052200
     36 H13          5.9800    -0.0250     0.6890 hc         1 0BB       0.017200
     37 H13A         5.3300    -1.2340     1.7560 hc         1 0BB       0.017200
     38 H17         -1.5910     0.4790     2.1710 h1         1 0BB       0.066200
     39 H17A        -2.0750     1.8050     1.1440 h1         1 0BB       0.066200
     40 H22         -0.4180    -0.7280    -0.9430 h4         1 0BB       0.188000
     41 H24         -6.7440    -0.1850     1.3470 ha         1 0BB       0.122000
     42 H25         -7.1600    -1.8710    -0.3890 ha         1 0BB       0.125000
     43 H26         -5.2990    -2.6950    -1.8060 ha         1 0BB       0.136000
     44 H34         -4.1920     1.9990     1.6390 hc         1 0BB       0.042033
     45 H34A        -5.4330     1.1850     2.5750 hc         1 0BB       0.042033
     46 H34B        -3.7470     0.7500     2.7950 hc         1 0BB       0.042033
@<TRIPOS>BOND
     1     1    11 1   
     2     1    12 1   
     3     1    28 1   
     4     1    29 1   
     5     2    10 2   
     6     3     4 ar  
     7     3     8 ar  
     8     3    30 1   
     9     4     5 ar  
    10     4    31 1   
    11     5     6 ar  
    12     5    32 1   
    13     6     7 ar  
    14     6    33 1   
    15     7     8 ar  
    16     7    11 1   
    17     8     9 1   
    18     9    10 1   
    19     9    14 1   
    20    10    11 1   
    21    12    13 1   
    22    12    34 1   
    23    12    35 1   
    24    13    25 1   
    25    13    36 1   
    26    13    37 1   
    27    14    15 1   
    28    14    38 1   
    29    14    39 1   
    30    15    16 1   
    31    15    19 2   
    32    16    17 ar  
    33    16    20 ar  
    34    17    18 1   
    35    17    23 ar  
    36    18    19 1   
    37    19    40 1   
    38    20    21 ar  
    39    20    24 1   
    40    21    22 ar  
    41    21    41 1   
    42    22    23 ar  
    43    22    42 1   
    44    23    43 1   
    45    24    44 1   
    46    24    45 1   
    47    24    46 1   
    48    25    26 1   
    49    25    27 1   
@<TRIPOS>SUBSTRUCTURE
     1 0BB         1 TEMP              0 ****  ****    0 ROOT
