@<TRIPOS>MOLECULE
0BB
   46    49     1     0     0
SMALL
No Charge or Current Charge


@<TRIPOS>ATOM
      1 C1           3.3630     0.5740     1.3190 c3         1 0BB       0.104000
      2 O1           0.7500     0.0790     2.6660 o          1 0BB      -0.563000
      3 C3          -0.2420     3.0170    -1.0240 ca         1 0BB      -0.114000
      4 C4           0.5860     3.7670    -1.8860 ca         1 0BB      -0.126000
      5 C5           1.9930     3.6250    -1.8330 ca         1 0BB      -0.115000
      6 C6           2.5870     2.7300    -0.9180 ca         1 0BB      -0.102000
      7 C7           1.7440     1.9170    -0.1480 ca         1 0BB       0.022600
      8 C8           0.3620     2.0590    -0.1990 ca         1 0BB      -0.008400
      9 N9          -0.1690     1.3820     0.9350 n          1 0BB      -0.305000
     10 C10          0.8620     0.7930     1.6780 c          1 0BB       0.591000
     11 N11          2.0430     1.1530     1.0160 n          1 0BB      -0.280000
     12 C12          3.7770    -0.5330     0.3270 c3         1 0BB      -0.075400
     13 C13          5.1640    -1.1460     0.6440 c3         1 0BB      -0.208400
     14 C17         -1.5960     1.0770     1.1400 c3         1 0BB       0.187200
     15 C18         -2.1070    -0.0440     0.2540 cc         1 0BB      -0.112400
     16 C19         -3.4890    -0.5360     0.1870 ca         1 0BB      -0.049800
     17 C20         -3.6310    -1.5710    -0.7310 ca         1 0BB      -0.169000
     18 S21         -2.1380    -2.0190    -1.5620 ss         1 0BB       0.074400
     19 C22         -1.3020    -0.7610    -0.6280 cd         1 0BB      -0.124400
     20 C23         -4.6280    -0.0950     0.9200 ca         1 0BB      -0.041300
     21 C24         -5.8710    -0.7270     0.6820 ca         1 0BB      -0.122000
     22 C25         -5.9880    -1.7710    -0.2540 ca         1 0BB      -0.108000
     23 C26         -4.8610    -2.1990    -0.9670 ca         1 0BB      -0.083000
     24 C34         -4.5900     1.0260     1.9540 c3         1 0BB      -0.048800
     25 C39          5.5120    -2.2380    -0.3830 c          1 0BB       0.720000
     26 O40          5.1500    -3.3820    -0.1520 o          1 0BB      -0.737500
     27 O41          6.0900    -1.9040    -1.4060 o          1 0BB      -0.737500
     28 H1           4.1080     1.3790     1.2980 h1         1 0BB       0.052200
     29 H1A          3.3500     0.1630     2.3370 h1         1 0BB       0.052200
     30 H3          -1.3160     3.1840    -0.9990 ha         1 0BB       0.116000
     31 H4           0.1420     4.4960    -2.5600 ha         1 0BB       0.104000
     32 H5           2.6220     4.2460    -2.4660 ha         1 0BB       0.109000
     33 H6           3.6680     2.6780    -0.8090 ha         1 0BB       0.134000
     34 H12          3.0180    -1.3250     0.3400 hc         1 0BB       0.052200
     35 H12A         3.7880    -0.1200    -0.6900 hc         1 0BB       0.052200
     36 H13          5.8790    -0.3170     0.5800 hc         1 0BB       0.017200
     37 H13A         5.0770    -1.5780     1.6490 hc         1 0BB       0.017200
     38 H17         -1.7470     0.8060     2.1910 h1         1 0BB       0.066200
     39 H17A        -2.1660     1.9900     0.9370 h1         1 0BB       0.066200
     40 H22         -0.2400    -0.6270    -0.8010 h4         1 0BB       0.238000
     41 H24         -6.7570    -0.4100     1.2270 ha         1 0BB       0.104000
     42 H25         -6.9520    -2.2450    -0.4230 ha         1 0BB       0.107000
     43 H26         -4.9410    -3.0070    -1.6920 ha         1 0BB       0.118000
     44 H34         -4.3030     1.9800     1.4980 hc         1 0BB       0.042033
     45 H34A        -5.5710     1.1830     2.4160 hc         1 0BB       0.042033
     46 H34B        -3.8950     0.7960     2.7690 hc         1 0BB       0.042033
@<TRIPOS>BOND
     1     1    11 1   
     2     1    12 1   
     3     1    28 1   
     4     1    29 1   
     5     2    10 2   
     6     3     4 ar  
     7     3     8 ar  
     8     3    30 1   
     9     4     5 ar  
    10     4    31 1   
    11     5     6 ar  
    12     5    32 1   
    13     6     7 ar  
    14     6    33 1   
    15     7     8 ar  
    16     7    11 1   
    17     8     9 1   
    18     9    10 1   
    19     9    14 1   
    20    10    11 1   
    21    12    13 1   
    22    12    34 1   
    23    12    35 1   
    24    13    25 1   
    25    13    36 1   
    26    13    37 1   
    27    14    15 1   
    28    14    38 1   
    29    14    39 1   
    30    15    16 1   
    31    15    19 2   
    32    16    17 ar  
    33    16    20 ar  
    34    17    18 1   
    35    17    23 ar  
    36    18    19 1   
    37    19    40 1   
    38    20    21 ar  
    39    20    24 1   
    40    21    22 ar  
    41    21    41 1   
    42    22    23 ar  
    43    22    42 1   
    44    23    43 1   
    45    24    44 1   
    46    24    45 1   
    47    24    46 1   
    48    25    26 1   
    49    25    27 1   
@<TRIPOS>SUBSTRUCTURE
     1 0BB         1 TEMP              0 ****  ****    0 ROOT
