@<TRIPOS>MOLECULE
0BC
   49    52     1     0     0
SMALL
abcg2


@<TRIPOS>ATOM
      1 CAA          3.0090     3.5120     2.8550 c3         1 0BC      -0.097100
      2 CAB          7.0990    -2.7340    -1.4660 c3         1 0BC      -0.195100
      3 CAE          5.8120    -0.6120     0.1120 ca         1 0BC      -0.046000
      4 CAF          5.2460     0.4130     0.8520 ca         1 0BC      -0.204000
      5 CAG         -6.2090    -1.6060     1.4180 cc         1 0BC       0.415300
      6 CAH         -3.9800    -2.5050     1.4960 cc         1 0BC      -0.260000
      7 CAI         -1.6930    -0.9560     0.3310 ca         1 0BC      -0.033000
      8 CAJ         -0.9500     1.0110    -0.8380 ca         1 0BC      -0.051000
      9 CAK         -3.2820     0.7180    -0.3160 ca         1 0BC      -0.021000
     10 CAL          3.6670    -1.1330    -0.8300 ca         1 0BC      -0.025000
     11 CAM          3.9780     2.5230     2.2580 c3         1 0BC       0.168600
     12 CAW          0.7190    -0.7610    -0.1540 c          1 0BC       0.618700
     13 CAX          5.0370    -1.3950    -0.7370 ca         1 0BC      -0.199600
     14 CAY         -0.6660    -0.2010    -0.2200 ca         1 0BC      -0.163600
     15 CAZ         -3.0080    -0.5010     0.2980 ca         1 0BC      -0.130500
     16 CBA         -2.2620     1.4690    -0.8890 ca         1 0BC      -0.142500
     17 CBB         -4.0990    -1.2860     0.8910 cd         1 0BC       0.336500
     18 CBC          3.0830    -0.1300    -0.0840 ca         1 0BC      -0.081000
     19 CBD          3.8800     0.6600     0.7690 ca         1 0BC       0.141100
     20 CBE         -2.5720     2.7330    -1.5500 cc         1 0BC       0.558500
     21 NAN         -5.3770    -0.7950     0.8580 nd         1 0BC      -0.630000
     22 NAO         -2.4200     4.4890    -2.5650 na         1 0BC       0.111600
     23 NAP         -1.6780     3.5090    -2.1320 nd         1 0BC      -0.523800
     24 NAQ         -3.8070     3.2590    -1.6470 nc         1 0BC      -0.374000
     25 NAS         -3.6830     4.3700    -2.2930 nd         1 0BC      -0.168800
     26 OAC          4.9110    -3.1610    -2.2810 o          1 0BC      -0.521100
     27 OAD          0.9140    -1.9610    -0.0920 o          1 0BC      -0.577100
     28 OAT          3.2360     1.6170     1.4420 os         1 0BC      -0.359100
     29 SAU         -5.5050    -3.0460     2.0360 ss         1 0BC      -0.013400
     30 H1           3.5580     4.2210     3.4740 hc         1 0BC       0.049700
     31 H2           2.4860     4.0770     2.0820 hc         1 0BC       0.049700
     32 H3           2.2710     3.0170     3.4860 hc         1 0BC       0.049700
     33 H4           7.6570    -1.8540    -1.7900 hc         1 0BC       0.060033
     34 H5           7.4020    -2.9450    -0.4400 hc         1 0BC       0.060033
     35 H6           7.3800    -3.5760    -2.0940 hc         1 0BC       0.060033
     36 H7           6.8750    -0.7850     0.2120 ha         1 0BC       0.114000
     37 H8           5.8790     1.0010     1.5010 ha         1 0BC       0.120000
     38 H10         -3.0940    -3.1000     1.6470 h4         1 0BC       0.167000
     39 H11         -1.4510    -1.9020     0.7950 ha         1 0BC       0.137000
     40 H12         -0.1680     1.5920    -1.3110 ha         1 0BC       0.131000
     41 H13         -4.3010     1.0780    -0.3540 ha         1 0BC       0.160000
     42 H14          3.0610    -1.7160    -1.5070 ha         1 0BC       0.157000
     43 H15          4.7320     3.0320     1.6500 h1         1 0BC       0.038200
     44 H16          4.4980     1.9710     3.0460 h1         1 0BC       0.038200
     45 H17         -2.0480     5.2810    -3.0750 hn         1 0BC       0.407000
     46 NAR          1.7130     0.1620    -0.1570 ns         1 0BC      -0.142000
     47 CAV          5.6170    -2.4880    -1.5560 c          1 0BC       0.586700
     48 H9          -7.2710    -1.4210     1.5060 h5         1 0BC       0.055100
     49 H18          1.4550     1.1270    -0.0120 hn         1 0BC       0.167000
@<TRIPOS>BOND
     1     1    11 1   
     2     1    30 1   
     3     1    31 1   
     4     1    32 1   
     5     2    33 1   
     6     2    34 1   
     7     2    35 1   
     8     2    47 1   
     9     3     4 ar  
    10     3    13 ar  
    11     3    36 1   
    12     4    19 ar  
    13     4    37 1   
    14     5    21 2   
    15     5    29 1   
    16     5    48 1   
    17     6    17 2   
    18     6    29 1   
    19     6    38 1   
    20     7    14 ar  
    21     7    15 ar  
    22     7    39 1   
    23     8    14 ar  
    24     8    16 ar  
    25     8    40 1   
    26     9    15 ar  
    27     9    16 ar  
    28     9    41 1   
    29    10    13 ar  
    30    10    18 ar  
    31    10    42 1   
    32    11    28 1   
    33    11    43 1   
    34    11    44 1   
    35    12    14 1   
    36    12    27 2   
    37    12    46 1   
    38    13    47 1   
    39    15    17 1   
    40    16    20 1   
    41    17    21 1   
    42    18    19 ar  
    43    18    46 1   
    44    19    28 1   
    45    20    23 2   
    46    20    24 1   
    47    22    23 1   
    48    22    25 1   
    49    22    45 1   
    50    24    25 2   
    51    26    47 2   
    52    46    49 1   
@<TRIPOS>SUBSTRUCTURE
     1 0BC         1 TEMP              0 ****  ****    0 ROOT
