@<TRIPOS>MOLECULE
0BC
   49    52     1     0     0
SMALL
No Charge or Current Charge


@<TRIPOS>ATOM
      1 CAA          2.9610     4.3630     0.5540 c3         1 0BC      -0.097100
      2 CAB          7.3000    -3.2570    -0.3700 c3         1 0BC      -0.195100
      3 CAE          5.9310    -0.5830    -0.0470 ca         1 0BC      -0.046000
      4 CAF          5.3230     0.6730     0.1040 ca         1 0BC      -0.204000
      5 CAG         -6.5850    -1.9520    -0.1170 cc         1 0BC       0.415300
      6 CAH         -4.3770    -2.9120    -0.2480 cc         1 0BC      -0.260000
      7 CAI         -1.8990    -1.2220    -0.0640 ca         1 0BC      -0.033000
      8 CAJ         -0.9170     0.9890     0.1930 ca         1 0BC      -0.051000
      9 CAK         -3.3340     0.7220     0.1790 ca         1 0BC      -0.021000
     10 CAL          3.7360    -1.6280    -0.1520 ca         1 0BC      -0.025000
     11 CAM          4.0020     3.2410     0.4150 c3         1 0BC       0.168600
     12 CAW          0.6250    -1.0500    -0.0620 c          1 0BC       0.618700
     13 CAX          5.1460    -1.7500    -0.1770 ca         1 0BC      -0.199600
     14 CAY         -0.7500    -0.4070     0.0250 ca         1 0BC      -0.163600
     15 CAZ         -3.1980    -0.6740     0.0110 ca         1 0BC      -0.130500
     16 CBA         -2.2040     1.5650     0.2710 ca         1 0BC      -0.142500
     17 CBB         -4.3960    -1.5420    -0.0840 cd         1 0BC       0.336500
     18 CBC          3.1180    -0.3660     0.0000 ca         1 0BC      -0.081000
     19 CBD          3.9190     0.7860     0.1290 ca         1 0BC       0.141100
     20 CBE         -2.3600     3.0230     0.4470 cc         1 0BC       0.558500
     21 NAN         -5.6710    -0.9950    -0.0090 nd         1 0BC      -0.630000
     22 NAO         -2.0360     5.0350     0.6850 na         1 0BC       0.111600
     23 NAP         -1.3470     3.8570     0.5390 nd         1 0BC      -0.523800
     24 NAQ         -3.5950     3.5990     0.5250 nc         1 0BC      -0.374000
     25 NAS         -3.3980     4.8770     0.6760 nd         1 0BC      -0.168800
     26 OAC          5.0810    -4.1220    -0.4540 o          1 0BC      -0.521100
     27 OAD          0.7510    -2.2610    -0.2070 o          1 0BC      -0.577100
     28 OAT          3.2830     2.0050     0.2760 os         1 0BC      -0.359100
     29 SAU         -5.9840    -3.5740    -0.3150 ss         1 0BC      -0.013400
     30 H1           3.4600     5.3330     0.6630 hc         1 0BC       0.049700
     31 H2           2.3170     4.4050    -0.3330 hc         1 0BC       0.049700
     32 H3           2.3310     4.1980     1.4370 hc         1 0BC       0.049700
     33 H4           7.7030    -2.6140    -1.1600 hc         1 0BC       0.060033
     34 H5           7.7170    -2.8130     0.5400 hc         1 0BC       0.060033
     35 H6           7.6270    -4.2960    -0.4940 hc         1 0BC       0.060033
     36 H7           7.0180    -0.6290    -0.0610 ha         1 0BC       0.114000
     37 H8           5.9610     1.5470     0.2020 ha         1 0BC       0.120000
     38 H10         -3.5320    -3.5800    -0.3340 h4         1 0BC       0.167000
     39 H11         -1.7730    -2.2940    -0.1930 ha         1 0BC       0.137000
     40 H12         -0.0510     1.6420     0.2650 ha         1 0BC       0.131000
     41 H13         -4.3310     1.1550     0.2380 ha         1 0BC       0.160000
     42 H14          3.1340    -2.5260    -0.2520 ha         1 0BC       0.157000
     43 H15          4.6280     3.4300    -0.4670 h1         1 0BC       0.038200
     44 H16          4.6420     3.2230     1.3070 h1         1 0BC       0.038200
     45 H17         -1.5910     5.9470     0.7910 hn         1 0BC       0.407000
     46 NAR          1.7040    -0.1800     0.0330 ns         1 0BC      -0.142000
     47 CAV          5.7760    -3.1200    -0.3420 c          1 0BC       0.586700
     48 H9          -7.6550    -1.7860    -0.0890 h5         1 0BC       0.055100
     49 H18          1.4410     0.7890     0.1500 hn         1 0BC       0.167000
@<TRIPOS>BOND
     1     1    11 1   
     2     1    30 1   
     3     1    31 1   
     4     1    32 1   
     5     2    33 1   
     6     2    34 1   
     7     2    35 1   
     8     2    47 1   
     9     3     4 ar  
    10     3    13 ar  
    11     3    36 1   
    12     4    19 ar  
    13     4    37 1   
    14     5    21 2   
    15     5    29 1   
    16     5    48 1   
    17     6    17 2   
    18     6    29 1   
    19     6    38 1   
    20     7    14 ar  
    21     7    15 ar  
    22     7    39 1   
    23     8    14 ar  
    24     8    16 ar  
    25     8    40 1   
    26     9    15 ar  
    27     9    16 ar  
    28     9    41 1   
    29    10    13 ar  
    30    10    18 ar  
    31    10    42 1   
    32    11    28 1   
    33    11    43 1   
    34    11    44 1   
    35    12    14 1   
    36    12    27 2   
    37    12    46 1   
    38    13    47 1   
    39    15    17 1   
    40    16    20 1   
    41    17    21 1   
    42    18    19 ar  
    43    18    46 1   
    44    19    28 1   
    45    20    23 2   
    46    20    24 1   
    47    22    23 1   
    48    22    25 1   
    49    22    45 1   
    50    24    25 2   
    51    26    47 2   
    52    46    49 1   
@<TRIPOS>SUBSTRUCTURE
     1 0BC         1 TEMP              0 ****  ****    0 ROOT
