@<TRIPOS>MOLECULE
0BD
   72    73     1     0     0
SMALL
No Charge or Current Charge


@<TRIPOS>ATOM
      1 C1           1.1700     1.0530    -1.3290 c6         1 0BD       0.112300
      2 C2          -0.1480     1.3700    -0.5770 c6         1 0BD       0.162300
      3 C3          -0.6350     0.0960     0.1910 c6         1 0BD       0.151300
      4 C4           0.5040    -0.3880     1.1380 c6         1 0BD       0.163300
      5 O5           1.7200    -0.6150     0.3740 os         1 0BD      -0.474000
      6 C6           2.2230     0.5620    -0.2850 c6         1 0BD       0.366300
      7 O7          -1.8570     0.3430     0.9270 os         1 0BD      -0.451000
      8 O16          3.4610     0.2490    -0.9510 os         1 0BD      -0.461000
      9 C18          4.5890    -0.1220    -0.1310 c3         1 0BD       0.181300
     10 C19          5.3620    -1.2180    -0.9100 c3         1 0BD      -0.086400
     11 C22          4.5820    -2.5400    -1.1620 c3         1 0BD      -0.060200
     12 O49          1.6160     2.2080    -2.0790 oh         1 0BD      -0.726000
     13 O55         -1.1170     1.8840    -1.5080 oh         1 0BD      -0.733000
     14 C57          0.1300    -1.7100     1.8860 c3         1 0BD       0.164600
     15 O61          1.1740    -2.1870     2.7620 oh         1 0BD      -0.720000
     16 C10         -3.0780     0.2100     0.1720 c6         1 0BD       0.373300
     17 C14          5.3660    -3.4700    -2.1160 c3         1 0BD      -0.089100
     18 C13          4.2220    -3.2810     0.1480 c3         1 0BD      -0.089100
     19 C            5.4800     1.1310     0.1190 c3         1 0BD      -0.086400
     20 C12          4.8870     2.2790     0.9850 c3         1 0BD      -0.060200
     21 C16          4.4570     1.8070     2.3960 c3         1 0BD      -0.089100
     22 C15          5.8840     3.4550     1.0890 c3         1 0BD      -0.089100
     23 O71         -3.7750    -0.9520     0.6530 os         1 0BD      -0.454000
     24 C17         -3.9630     1.5000     0.3040 c6         1 0BD       0.110300
     25 C181        -5.0010    -1.2220    -0.0790 c6         1 0BD       0.188300
     26 C191        -5.3370     1.2810    -0.4120 c6         1 0BD       0.141300
     27 C20         -6.0130    -0.0370     0.0940 c6         1 0BD       0.138300
     28 H1           0.9810     0.2160    -2.0190 h1         1 0BD       0.066700
     29 H2           0.0750     2.1440     0.1740 h1         1 0BD       0.058700
     30 H3          -0.8200    -0.7090    -0.5360 h1         1 0BD       0.065700
     31 H4           0.7000     0.3860     1.8950 h1         1 0BD       0.064700
     32 H6           2.3860     1.3520     0.4600 h2         1 0BD       0.037700
     33 H18          4.2710    -0.5400     0.8320 h1         1 0BD       0.056700
     34 H19          5.6750    -0.7990    -1.8750 hc         1 0BD       0.045700
     35 H19A         6.2850    -1.4550    -0.3660 hc         1 0BD       0.045700
     36 H22          3.6400    -2.2880    -1.6660 hc         1 0BD       0.058700
     37 HO49         2.5440     2.0120    -2.3550 ho         1 0BD       0.527000
     38 HO55        -0.5560     2.3220    -2.2010 ho         1 0BD       0.531000
     39 H57         -0.7890    -1.5290     2.4620 h1         1 0BD       0.048700
     40 H57A        -0.1080    -2.4710     1.1300 h1         1 0BD       0.048700
     41 HO61         0.8680    -3.0470     3.1340 ho         1 0BD       0.507000
     42 H10         -2.8410     0.0580    -0.8930 h2         1 0BD       0.039700
     43 H14          4.7910    -4.3800    -2.3310 hc         1 0BD       0.032700
     44 H14A         5.5680    -2.9680    -3.0690 hc         1 0BD       0.032700
     45 H14B         6.3240    -3.7670    -1.6730 hc         1 0BD       0.032700
     46 H13          3.5650    -2.6760     0.7810 hc         1 0BD       0.032700
     47 H13A         3.6960    -4.2180    -0.0710 hc         1 0BD       0.032700
     48 H13B         5.1260    -3.5230     0.7210 hc         1 0BD       0.032700
     49 H            6.4090     0.7950     0.5960 hc         1 0BD       0.045700
     50 HA           5.7730     1.5420    -0.8550 hc         1 0BD       0.045700
     51 H12          4.0030     2.6750     0.4730 hc         1 0BD       0.058700
     52 H16          5.3080     1.3800     2.9400 hc         1 0BD       0.032700
     53 H16A         4.0650     2.6480     2.9810 hc         1 0BD       0.032700
     54 H16B         3.6680     1.0480     2.3440 hc         1 0BD       0.032700
     55 H15          6.1510     3.8270     0.0920 hc         1 0BD       0.032700
     56 H15A         5.4450     4.2880     1.6510 hc         1 0BD       0.032700
     57 H15B         6.8050     3.1450     1.5980 hc         1 0BD       0.032700
     58 O8          -3.3010     2.6880    -0.2080 oh         1 0BD      -0.751000
     59 H31         -4.1680     1.6350     1.3760 h1         1 0BD       0.074700
     60 C21         -5.5860    -2.5910     0.4020 c3         1 0BD       0.169600
     61 H32         -4.7570    -1.3290    -1.1460 h1         1 0BD       0.064700
     62 O9          -5.1480     1.2440    -1.8390 oh         1 0BD      -0.671000
     63 H33         -5.9950     2.1250    -0.1570 h1         1 0BD       0.047700
     64 O10         -6.4220     0.1110     1.4750 oh         1 0BD      -0.705000
     65 H34         -6.8940    -0.2410    -0.5350 h1         1 0BD       0.055700
     66 H35         -6.5250    -2.7680    -0.1410 h1         1 0BD       0.037700
     67 O11         -4.6850    -3.7020     0.1990 oh         1 0BD      -0.719000
     68 H36         -5.8390    -2.5040     1.4670 h1         1 0BD       0.037700
     69 H37         -2.4510     2.3740    -0.6460 ho         1 0BD       0.548000
     70 H38         -4.6520     2.0670    -2.0570 ho         1 0BD       0.471000
     71 H39         -7.2250     0.6820     1.4850 ho         1 0BD       0.504000
     72 H40         -5.1090    -4.4940     0.6070 ho         1 0BD       0.505000
@<TRIPOS>BOND
     1     1     2 1   
     2     1     6 1   
     3     1    12 1   
     4     1    28 1   
     5     2     3 1   
     6     2    13 1   
     7     2    29 1   
     8     3     4 1   
     9     3     7 1   
    10     3    30 1   
    11     4     5 1   
    12     4    14 1   
    13     4    31 1   
    14     5     6 1   
    15     6     8 1   
    16     6    32 1   
    17     7    16 1   
    18     8     9 1   
    19     9    10 1   
    20     9    19 1   
    21     9    33 1   
    22    10    11 1   
    23    10    34 1   
    24    10    35 1   
    25    11    17 1   
    26    11    18 1   
    27    11    36 1   
    28    12    37 1   
    29    13    38 1   
    30    14    15 1   
    31    14    39 1   
    32    14    40 1   
    33    15    41 1   
    34    16    23 1   
    35    16    24 1   
    36    16    42 1   
    37    17    43 1   
    38    17    44 1   
    39    17    45 1   
    40    18    46 1   
    41    18    47 1   
    42    18    48 1   
    43    19    20 1   
    44    19    49 1   
    45    19    50 1   
    46    20    21 1   
    47    20    22 1   
    48    20    51 1   
    49    21    52 1   
    50    21    53 1   
    51    21    54 1   
    52    22    55 1   
    53    22    56 1   
    54    22    57 1   
    55    23    25 1   
    56    24    26 1   
    57    24    58 1   
    58    24    59 1   
    59    25    27 1   
    60    25    60 1   
    61    25    61 1   
    62    26    27 1   
    63    26    62 1   
    64    26    63 1   
    65    27    64 1   
    66    27    65 1   
    67    58    69 1   
    68    60    66 1   
    69    60    67 1   
    70    60    68 1   
    71    62    70 1   
    72    64    71 1   
    73    67    72 1   
@<TRIPOS>SUBSTRUCTURE
     1 0BD         1 TEMP              0 ****  ****    0 ROOT
