@<TRIPOS>MOLECULE
0BD
   72    73     1     0     0
SMALL
abcg2


@<TRIPOS>ATOM
      1 C1           1.4160     1.5240    -1.1520 c6         1 0BD       0.112300
      2 C2           0.0350     1.7310    -0.5500 c6         1 0BD       0.162300
      3 C3          -0.6440     0.3960    -0.2660 c6         1 0BD       0.151300
      4 C4           0.2900    -0.4930     0.5680 c6         1 0BD       0.163300
      5 O5           1.5200    -0.6240    -0.1100 os         1 0BD      -0.474000
      6 C6           2.2150     0.5890    -0.2480 c6         1 0BD       0.366300
      7 O7          -1.8380     0.6720     0.4350 os         1 0BD      -0.451000
      8 O16          3.4260     0.3440    -0.8470 os         1 0BD      -0.461000
      9 C18          4.4900    -0.1330    -0.0150 c3         1 0BD       0.181300
     10 C19          5.1840    -1.2740    -0.7470 c3         1 0BD      -0.086400
     11 C22          4.3440    -2.5240    -1.0180 c3         1 0BD      -0.060200
     12 O49          2.0190     2.7870    -1.2710 oh         1 0BD      -0.726000
     13 O55         -0.8020     2.4690    -1.4140 oh         1 0BD      -0.733000
     14 C57         -0.2610    -1.8860     0.7890 c3         1 0BD       0.164600
     15 O61          0.5390    -2.5330     1.7520 oh         1 0BD      -0.720000
     16 C10         -3.0470     0.2430    -0.0970 c6         1 0BD       0.373300
     17 C14          5.1470    -3.4960    -1.8770 c3         1 0BD      -0.089100
     18 C13          3.8810    -3.2020     0.2690 c3         1 0BD      -0.089100
     19 C            5.4730     1.0010     0.2630 c3         1 0BD      -0.086400
     20 C12          4.9510     2.1930     1.0700 c3         1 0BD      -0.060200
     21 C16          4.5900     1.8060     2.5010 c3         1 0BD      -0.089100
     22 C15          5.9980     3.3030     1.0760 c3         1 0BD      -0.089100
     23 O71         -3.5340    -0.7520     0.7560 os         1 0BD      -0.454000
     24 C17         -4.0280     1.4140    -0.1390 c6         1 0BD       0.110300
     25 C181        -4.7490    -1.3250     0.3130 c6         1 0BD       0.188300
     26 C191        -5.4090     0.9190    -0.5740 c6         1 0BD       0.141300
     27 C20         -5.8520    -0.2730     0.2800 c6         1 0BD       0.138300
     28 H1           1.3070     1.0350    -2.1330 h1         1 0BD       0.066700
     29 H2           0.1540     2.2570     0.4100 h1         1 0BD       0.058700
     30 H3          -0.8630    -0.1090    -1.2180 h1         1 0BD       0.065700
     31 H4           0.4400    -0.0100     1.5470 h1         1 0BD       0.064700
     32 H6           2.3330     1.0540     0.7490 h2         1 0BD       0.037700
     33 H18          4.0750    -0.5140     0.9260 h1         1 0BD       0.056700
     34 H19          5.5730    -0.8860    -1.6960 hc         1 0BD       0.045700
     35 H19A         6.0630    -1.5640    -0.1610 hc         1 0BD       0.045700
     36 H22          3.4540    -2.2260    -1.5810 hc         1 0BD       0.058700
     37 HO49         2.8370     2.6880    -1.7690 ho         1 0BD       0.527000
     38 HO55        -0.4430     3.3590    -1.5080 ho         1 0BD       0.531000
     39 H57         -1.3030    -1.8210     1.1160 h1         1 0BD       0.048700
     40 H57A        -0.2570    -2.4210    -0.1700 h1         1 0BD       0.048700
     41 HO61         0.3620    -3.4760     1.7060 ho         1 0BD       0.507000
     42 H10         -2.9010    -0.1600    -1.1140 h2         1 0BD       0.039700
     43 H14          4.5730    -4.3960    -2.1030 hc         1 0BD       0.032700
     44 H14A         5.4400    -3.0410    -2.8260 hc         1 0BD       0.032700
     45 H14B         6.0610    -3.8070    -1.3650 hc         1 0BD       0.032700
     46 H13          3.1810    -2.5850     0.8300 hc         1 0BD       0.032700
     47 H13A         3.3700    -4.1410     0.0450 hc         1 0BD       0.032700
     48 H13B         4.7320    -3.4390     0.9140 hc         1 0BD       0.032700
     49 H            6.3380     0.5800     0.7900 hc         1 0BD       0.045700
     50 HA           5.8520     1.3590    -0.7010 hc         1 0BD       0.045700
     51 H12          4.0560     2.5880     0.5790 hc         1 0BD       0.058700
     52 H16          5.4640     1.4210     3.0320 hc         1 0BD       0.032700
     53 H16A         4.2200     2.6690     3.0580 hc         1 0BD       0.032700
     54 H16B         3.8160     1.0380     2.5490 hc         1 0BD       0.032700
     55 H15          6.2470     3.6220     0.0620 hc         1 0BD       0.032700
     56 H15A         5.6460     4.1800     1.6220 hc         1 0BD       0.032700
     57 H15B         6.9220     2.9660     1.5530 hc         1 0BD       0.032700
     58 O8          -3.6350     2.4040    -1.0550 oh         1 0BD      -0.751000
     59 H31         -4.1110     1.8140     0.8820 h1         1 0BD       0.074700
     60 C21         -5.0770    -2.4900     1.2210 c3         1 0BD       0.169600
     61 H32         -4.6330    -1.7080    -0.7130 h1         1 0BD       0.064700
     62 O9          -5.3950     0.4920    -1.9160 oh         1 0BD      -0.671000
     63 H33         -6.1330     1.7380    -0.4390 h1         1 0BD       0.047700
     64 O10         -6.1250     0.1320     1.6000 oh         1 0BD      -0.705000
     65 H34         -6.7370    -0.7240    -0.1900 h1         1 0BD       0.055700
     66 H35         -6.0770    -2.8560     0.9520 h1         1 0BD       0.037700
     67 O11         -4.0950    -3.4840     1.0490 oh         1 0BD      -0.719000
     68 H36         -5.1300    -2.1470     2.2600 h1         1 0BD       0.037700
     69 H37         -2.6680     2.5110    -1.0400 ho         1 0BD       0.548000
     70 H38         -4.9530     1.1750    -2.4340 ho         1 0BD       0.471000
     71 H39         -6.9080     0.6910     1.5930 ho         1 0BD       0.504000
     72 H40         -4.2760    -4.1910     1.6750 ho         1 0BD       0.505000
@<TRIPOS>BOND
     1     1     2 1   
     2     1     6 1   
     3     1    12 1   
     4     1    28 1   
     5     2     3 1   
     6     2    13 1   
     7     2    29 1   
     8     3     4 1   
     9     3     7 1   
    10     3    30 1   
    11     4     5 1   
    12     4    14 1   
    13     4    31 1   
    14     5     6 1   
    15     6     8 1   
    16     6    32 1   
    17     7    16 1   
    18     8     9 1   
    19     9    10 1   
    20     9    19 1   
    21     9    33 1   
    22    10    11 1   
    23    10    34 1   
    24    10    35 1   
    25    11    17 1   
    26    11    18 1   
    27    11    36 1   
    28    12    37 1   
    29    13    38 1   
    30    14    15 1   
    31    14    39 1   
    32    14    40 1   
    33    15    41 1   
    34    16    23 1   
    35    16    24 1   
    36    16    42 1   
    37    17    43 1   
    38    17    44 1   
    39    17    45 1   
    40    18    46 1   
    41    18    47 1   
    42    18    48 1   
    43    19    20 1   
    44    19    49 1   
    45    19    50 1   
    46    20    21 1   
    47    20    22 1   
    48    20    51 1   
    49    21    52 1   
    50    21    53 1   
    51    21    54 1   
    52    22    55 1   
    53    22    56 1   
    54    22    57 1   
    55    23    25 1   
    56    24    26 1   
    57    24    58 1   
    58    24    59 1   
    59    25    27 1   
    60    25    60 1   
    61    25    61 1   
    62    26    27 1   
    63    26    62 1   
    64    26    63 1   
    65    27    64 1   
    66    27    65 1   
    67    58    69 1   
    68    60    66 1   
    69    60    67 1   
    70    60    68 1   
    71    62    70 1   
    72    64    71 1   
    73    67    72 1   
@<TRIPOS>SUBSTRUCTURE
     1 0BD         1 TEMP              0 ****  ****    0 ROOT
