@<TRIPOS>MOLECULE
0BF
   54    58     1     0     0
SMALL
abcg2


@<TRIPOS>ATOM
      1 C01        -25.8970   -23.6470    -4.1310 c6         1 0BF       0.098000
      2 C03        -23.8530   -24.5970    -5.0750 c6         1 0BF       0.098000
      3 C04        -23.6810   -25.5110    -3.8650 c6         1 0BF      -0.099400
      4 C05        -24.3460   -24.9350    -2.6060 c5         1 0BF       0.290400
      5 C06        -25.7960   -24.5500    -2.9030 c6         1 0BF      -0.099400
      6 C08        -22.4920   -24.3980    -0.7960 c5         1 0BF      -0.027400
      7 C09        -23.2540   -25.6880    -0.5750 c          1 0BF       0.566000
      8 C12        -27.3620   -24.3270    -6.5740 c3         1 0BF       0.042600
      9 C16        -26.0950   -27.1680    -0.4820 cc         1 0BF       0.105300
     10 C18        -28.1180   -26.6270     0.2540 cc         1 0BF       0.199500
     11 C19        -27.5610   -27.4610     1.1830 cd         1 0BF      -0.169000
     12 C20        -26.2580   -27.8040     0.7070 cd         1 0BF      -0.140000
     13 C21        -29.3550   -25.8600     0.1630 ca         1 0BF      -0.116500
     14 C22        -29.3160   -24.6130    -0.4350 ca         1 0BF      -0.083000
     15 C23        -30.4570   -23.7960    -0.5090 ca         1 0BF      -0.114000
     16 C24        -31.6460   -24.2200     0.0250 ca         1 0BF      -0.085000
     17 C25        -31.7470   -25.4970     0.6260 ca         1 0BF      -0.041000
     18 C26        -30.5980   -26.3490     0.6860 ca         1 0BF      -0.012000
     19 C27        -32.9800   -25.9560     1.1530 ca         1 0BF      -0.097000
     20 C28        -33.0940   -27.2080     1.6960 ca         1 0BF      -0.106000
     21 C29        -31.9760   -28.0660     1.7190 ca         1 0BF      -0.103000
     22 C30        -30.7640   -27.6480     1.2280 ca         1 0BF      -0.103000
     23 N02        -25.2650   -24.2850    -5.2820 n          1 0BF      -0.406800
     24 N10        -24.2370   -25.8740    -1.4860 n          1 0BF      -0.416800
     25 O13        -25.3100   -25.2340    -7.3460 o          1 0BF      -0.592100
     26 O14        -22.9820   -26.4770     0.3220 o          1 0BF      -0.533000
     27 O17        -27.2190   -26.4470    -0.7710 os         1 0BF      -0.262000
     28 S07        -23.4350   -23.4290    -2.0020 ss         1 0BF      -0.424000
     29 H1         -26.9380   -23.4260    -4.3350 h1         1 0BF       0.071200
     30 H2         -25.3980   -22.6900    -3.9520 h1         1 0BF       0.071200
     31 H3         -23.3120   -23.6590    -4.9180 h1         1 0BF       0.071200
     32 H4         -23.4680   -25.0710    -5.9710 h1         1 0BF       0.071200
     33 H5         -24.1370   -26.4790    -4.0880 hc         1 0BF       0.068200
     34 H6         -26.2330   -24.0540    -2.0380 hc         1 0BF       0.068200
     35 H7         -22.4100   -23.8520     0.1410 h1         1 0BF       0.102700
     36 H8         -21.4900   -24.6370    -1.1550 h1         1 0BF       0.102700
     37 H9         -27.7340   -24.8540    -7.4450 h1         1 0BF       0.089200
     38 H10        -27.9560   -24.5760    -5.7010 h1         1 0BF       0.089200
     39 CL         -27.6010   -22.5600    -6.8980 cl         1 0BF      -0.260000
     40 H12        -24.2890   -27.9390    -1.2200 h1         1 0BF       0.074200
     41 H13        -25.3650   -27.3260    -2.4720 h1         1 0BF       0.074200
     42 H14        -28.0040   -27.7650     2.1150 ha         1 0BF       0.147000
     43 H15        -25.5330   -28.4370     1.1920 ha         1 0BF       0.151000
     44 H16        -28.3790   -24.2490    -0.8320 ha         1 0BF       0.119000
     45 H17        -30.3820   -22.8220    -0.9760 ha         1 0BF       0.117000
     46 H18        -32.5260   -23.5890    -0.0100 ha         1 0BF       0.116000
     47 H19        -33.8360   -25.2930     1.1080 ha         1 0BF       0.114000
     48 H20        -34.0430   -27.5480     2.0930 ha         1 0BF       0.116000
     49 H21        -32.0750   -29.0670     2.1190 ha         1 0BF       0.115000
     50 H22        -29.9280   -28.3310     1.2360 ha         1 0BF       0.121000
     51 H23        -22.6200   -25.6780    -3.6760 hc         1 0BF       0.068200
     52 H24        -26.3740   -25.4550    -3.0980 hc         1 0BF       0.068200
     53 C11        -25.8830   -24.6510    -6.4230 c          1 0BF       0.600100
     54 C15        -24.9850   -27.1390    -1.4700 c3         1 0BF       0.087700
@<TRIPOS>BOND
     1     1     5 1   
     2     1    23 1   
     3     1    29 1   
     4     1    30 1   
     5     2     3 1   
     6     2    23 1   
     7     2    31 1   
     8     2    32 1   
     9     3     4 1   
    10     3    33 1   
    11     3    51 1   
    12     4     5 1   
    13     4    24 1   
    14     4    28 1   
    15     5    34 1   
    16     5    52 1   
    17     6     7 1   
    18     6    28 1   
    19     6    35 1   
    20     6    36 1   
    21     7    24 1   
    22     7    26 2   
    23     8    37 1   
    24     8    38 1   
    25     8    39 1   
    26     8    53 1   
    27     9    12 2   
    28     9    27 1   
    29     9    54 1   
    30    10    11 2   
    31    10    13 1   
    32    10    27 1   
    33    11    12 1   
    34    11    42 1   
    35    12    43 1   
    36    13    14 ar  
    37    13    18 ar  
    38    14    15 ar  
    39    14    44 1   
    40    15    16 ar  
    41    15    45 1   
    42    16    17 ar  
    43    16    46 1   
    44    17    18 ar  
    45    17    19 ar  
    46    18    22 ar  
    47    19    20 ar  
    48    19    47 1   
    49    20    21 ar  
    50    20    48 1   
    51    21    22 ar  
    52    21    49 1   
    53    22    50 1   
    54    23    53 1   
    55    24    54 1   
    56    25    53 2   
    57    40    54 1   
    58    41    54 1   
@<TRIPOS>SUBSTRUCTURE
     1 0BF         1 TEMP              0 ****  ****    0 ROOT
