@<TRIPOS>MOLECULE
0BF
   54    58     1     0     0
SMALL
No Charge or Current Charge


@<TRIPOS>ATOM
      1 C01        -25.8180   -23.8550    -4.1070 c6         1 0BF       0.098000
      2 C03        -23.7900   -24.9400    -5.1490 c6         1 0BF       0.098000
      3 C04        -23.7570   -25.9440    -3.9740 c6         1 0BF      -0.099400
      4 C05        -24.2870   -25.3260    -2.6620 c5         1 0BF       0.290400
      5 C06        -25.7400   -24.8910    -2.9640 c6         1 0BF      -0.099400
      6 C08        -22.1600   -25.1240    -1.1560 c5         1 0BF      -0.027400
      7 C09        -23.0590   -26.2880    -0.7300 c          1 0BF       0.566000
      8 C12        -26.6850   -22.8700    -6.8020 c3         1 0BF       0.042600
      9 C16        -26.3150   -26.9300    -0.4130 cc         1 0BF       0.105300
     10 C18        -28.3570   -26.3550     0.1370 cc         1 0BF       0.199500
     11 C19        -27.5980   -26.1560     1.2560 cd         1 0BF      -0.169000
     12 C20        -26.2880   -26.5470     0.9050 cd         1 0BF      -0.140000
     13 C21        -29.7570   -25.9620    -0.0160 ca         1 0BF      -0.116500
     14 C22        -30.0820   -25.0870    -1.0730 ca         1 0BF      -0.083000
     15 C23        -31.4000   -24.6450    -1.2600 ca         1 0BF      -0.114000
     16 C24        -32.4140   -25.0760    -0.3920 ca         1 0BF      -0.085000
     17 C25        -32.1140   -25.9620     0.6580 ca         1 0BF      -0.041000
     18 C26        -30.7850   -26.4180     0.8520 ca         1 0BF      -0.012000
     19 C27        -33.1460   -26.3980     1.5120 ca         1 0BF      -0.097000
     20 C28        -32.8700   -27.2950     2.5540 ca         1 0BF      -0.106000
     21 C29        -31.5630   -27.7670     2.7430 ca         1 0BF      -0.103000
     22 C30        -30.5260   -27.3350     1.8970 ca         1 0BF      -0.103000
     23 N02        -25.1060   -24.2630    -5.3590 n          1 0BF      -0.406800
     24 N10        -24.2030   -26.3200    -1.5560 n          1 0BF      -0.416800
     25 O13        -24.4730   -23.5540    -7.4530 o          1 0BF      -0.592100
     26 O14        -22.8550   -27.0650     0.1940 o          1 0BF      -0.533000
     27 O17        -27.5930   -26.7940    -0.9140 os         1 0BF      -0.262000
     28 S07        -23.2540   -23.9200    -2.0370 ss         1 0BF      -0.424000
     29 H1         -26.8810   -23.6700    -4.3130 h1         1 0BF       0.071200
     30 H2         -25.3920   -22.9020    -3.7600 h1         1 0BF       0.071200
     31 H3         -23.0260   -24.1670    -4.9820 h1         1 0BF       0.071200
     32 H4         -23.5040   -25.4750    -6.0660 h1         1 0BF       0.071200
     33 H5         -24.3580   -26.8250    -4.2380 hc         1 0BF       0.068200
     34 H6         -26.1970   -24.4690    -2.0590 hc         1 0BF       0.068200
     35 H7         -21.6950   -24.6730    -0.2710 h1         1 0BF       0.102700
     36 H8         -21.3850   -25.5100    -1.8280 h1         1 0BF       0.102700
     37 H9         -26.8390   -22.7590    -7.8810 h1         1 0BF       0.089200
     38 H10        -27.4880   -23.4950    -6.3960 h1         1 0BF       0.089200
     39 Cl         -26.7950   -21.2050    -6.0500 cl         1 0BF      -0.260000
     40 H12        -24.7360   -28.2780    -0.8970 h1         1 0BF       0.074200
     41 H13        -25.6430   -27.6990    -2.2900 h1         1 0BF       0.074200
     42 H14        -27.9360   -25.7600     2.2080 ha         1 0BF       0.147000
     43 H15        -25.4100   -26.5230     1.5440 ha         1 0BF       0.151000
     44 H16        -29.3020   -24.7380    -1.7470 ha         1 0BF       0.119000
     45 H17        -31.6350   -23.9650    -2.0750 ha         1 0BF       0.117000
     46 H18        -33.4330   -24.7270    -0.5420 ha         1 0BF       0.116000
     47 H19        -34.1640   -26.0440     1.3650 ha         1 0BF       0.114000
     48 H20        -33.6710   -27.6310     3.2100 ha         1 0BF       0.116000
     49 H21        -31.3510   -28.4710     3.5450 ha         1 0BF       0.115000
     50 H22        -29.5300   -27.7350     2.0620 ha         1 0BF       0.121000
     51 H23        -22.7310   -26.3060    -3.8350 hc         1 0BF       0.068200
     52 H24        -26.3520   -25.7570    -3.2470 hc         1 0BF       0.068200
     53 C11        -25.3270   -23.5610    -6.5720 c          1 0BF       0.600100
     54 C15        -25.2130   -27.3890    -1.3290 c3         1 0BF       0.087700
@<TRIPOS>BOND
     1     1     5 1   
     2     1    23 1   
     3     1    29 1   
     4     1    30 1   
     5     2     3 1   
     6     2    23 1   
     7     2    31 1   
     8     2    32 1   
     9     3     4 1   
    10     3    33 1   
    11     3    51 1   
    12     4     5 1   
    13     4    24 1   
    14     4    28 1   
    15     5    34 1   
    16     5    52 1   
    17     6     7 1   
    18     6    28 1   
    19     6    35 1   
    20     6    36 1   
    21     7    24 1   
    22     7    26 2   
    23     8    37 1   
    24     8    38 1   
    25     8    39 1   
    26     8    53 1   
    27     9    12 2   
    28     9    27 1   
    29     9    54 1   
    30    10    11 2   
    31    10    13 1   
    32    10    27 1   
    33    11    12 1   
    34    11    42 1   
    35    12    43 1   
    36    13    14 ar  
    37    13    18 ar  
    38    14    15 ar  
    39    14    44 1   
    40    15    16 ar  
    41    15    45 1   
    42    16    17 ar  
    43    16    46 1   
    44    17    18 ar  
    45    17    19 ar  
    46    18    22 ar  
    47    19    20 ar  
    48    19    47 1   
    49    20    21 ar  
    50    20    48 1   
    51    21    22 ar  
    52    21    49 1   
    53    22    50 1   
    54    23    53 1   
    55    24    54 1   
    56    25    53 2   
    57    40    54 1   
    58    41    54 1   
@<TRIPOS>SUBSTRUCTURE
     1 0BF         1 TEMP              0 ****  ****    0 ROOT
