@<TRIPOS>MOLECULE
0BG
   44    46     1     0     0
SMALL
bcc


@<TRIPOS>ATOM
      1 N1          18.4300     4.9100    -0.0610 nb         1 0BG      -0.756000
      2 N3          21.7700     7.1100     1.0420 nh         1 0BG      -0.783300
      3 C4          19.7330     5.9290     1.7470 ca         1 0BG      -0.377400
      4 C5          20.6650     6.3820     0.7770 ca         1 0BG       0.763200
      5 C6          22.7040     7.4020    -0.0280 c3         1 0BG       0.223100
      6 C10         22.7080     7.8360     5.4790 c          1 0BG       0.627100
      7 C13         22.2870     7.1920     9.7080 ca         1 0BG      -0.191500
      8 C15         23.4800     5.1290    10.0830 ca         1 0BG      -0.172000
      9 C17         23.9920     6.5040     8.1600 ca         1 0BG      -0.191500
     10 C1          18.6460     5.2060     1.2220 ca         1 0BG       0.466800
     11 C11         23.3020     8.7940     6.5140 c3         1 0BG       0.132800
     12 C12         23.0240     7.4410     8.5400 ca         1 0BG       0.175600
     13 C14         22.5140     6.0560    10.4620 ca         1 0BG      -0.088500
     14 C16         24.2120     5.3690     8.9290 ca         1 0BG      -0.088500
     15 C18         22.0150     7.7680     2.3080 c3         1 0BG       0.206800
     16 C19         19.3810     5.3650    -0.8470 ca         1 0BG       0.702900
     17 C2          18.4060     5.2660     3.4290 cc         1 0BG      -0.130100
     18 C3          19.5580     5.9450     3.1700 cd         1 0BG      -0.156200
     19 C9          22.9860     6.9800     3.1910 c3         1 0BG       0.077000
     20 N2          17.8580     4.8270     2.2530 na         1 0BG      -0.268100
     21 N4          23.4170     7.7350     4.3440 ns         1 0BG      -0.574900
     22 N5          22.8060     8.6050     7.8390 nu         1 0BG      -0.739600
     23 N6          20.4570     6.0650    -0.5060 nb         1 0BG      -0.833000
     24 O1          21.6640     7.2370     5.6830 o          1 0BG      -0.593100
     25 H1          23.6230     7.7890     0.4080 h1         1 0BG       0.041700
     26 H2          22.9510     6.5070    -0.5960 h1         1 0BG       0.041700
     27 H3          22.3140     8.1490    -0.7240 h1         1 0BG       0.041700
     28 H5          23.6550     4.2400    10.6740 ha         1 0BG       0.131000
     29 H6          24.5840     6.6450     7.2640 ha         1 0BG       0.125500
     30 H7          24.3950     8.7400     6.4940 h1         1 0BG       0.065200
     31 H8          23.0540     9.8110     6.2010 h1         1 0BG       0.065200
     32 H9          21.9270     5.8920    11.3570 ha         1 0BG       0.126000
     33 H10         24.9670     4.6600     8.6100 ha         1 0BG       0.126000
     34 H11         22.4420     8.7520     2.1010 h1         1 0BG       0.058700
     35 H12         21.0780     7.9520     2.8290 h1         1 0BG       0.058700
     36 H13         19.2790     5.1490    -1.9060 h5         1 0BG       0.042100
     37 H14         17.9290     5.0550     4.3720 h4         1 0BG       0.169000
     38 H15         20.1930     6.3790     3.9250 ha         1 0BG       0.176000
     39 H16         22.5330     6.0420     3.5130 h1         1 0BG       0.066200
     40 H17         23.8750     6.7220     2.6140 h1         1 0BG       0.066200
     41 H18         17.0130     4.2860     2.1640 hn         1 0BG       0.309700
     42 H19         24.2510     8.2930     4.2470 hn         1 0BG       0.311500
     43 H20         21.9300     9.0610     8.0330 hn         1 0BG       0.421800
     44 H4          21.5300     7.9040    10.0190 ha         1 0BG       0.125500
@<TRIPOS>BOND
     1     1    10 ar  
     2     1    16 ar  
     3     2     4 1   
     4     2     5 1   
     5     2    15 1   
     6     3     4 ar  
     7     3    10 ar  
     8     3    18 1   
     9     4    23 ar  
    10     5    25 1   
    11     5    26 1   
    12     5    27 1   
    13     6    11 1   
    14     6    21 1   
    15     6    24 2   
    16     7    12 ar  
    17     7    13 ar  
    18     7    44 1   
    19     8    13 ar  
    20     8    14 ar  
    21     8    28 1   
    22     9    12 ar  
    23     9    14 ar  
    24     9    29 1   
    25    10    20 1   
    26    11    22 1   
    27    11    30 1   
    28    11    31 1   
    29    12    22 1   
    30    13    32 1   
    31    14    33 1   
    32    15    19 1   
    33    15    34 1   
    34    15    35 1   
    35    16    23 ar  
    36    16    36 1   
    37    17    18 2   
    38    17    20 1   
    39    17    37 1   
    40    18    38 1   
    41    19    21 1   
    42    19    39 1   
    43    19    40 1   
    44    20    41 1   
    45    21    42 1   
    46    22    43 1   
@<TRIPOS>SUBSTRUCTURE
     1 0BG         1 TEMP              0 ****  ****    0 ROOT
