@<TRIPOS>MOLECULE
0BG
   44    46     1     0     0
SMALL
No Charge or Current Charge


@<TRIPOS>ATOM
      1 N1          18.7200     6.1440    -0.9610 nb         1 0BG      -0.230000
      2 N3          21.8980     5.9710     1.7820 nh         1 0BG      -0.783300
      3 C4          19.4570     6.1920     1.2910 ca         1 0BG      -0.246800
      4 C5          20.8000     6.0370     0.8880 ca         1 0BG       0.434900
      5 C6          23.1440     5.2700     1.3790 c3         1 0BG       0.223100
      6 C10         21.3410     8.0810     5.8830 c          1 0BG       0.560100
      7 C13         23.2370     6.4090     9.2540 ca         1 0BG      -0.173500
      8 C15         25.5590     5.8770     8.7570 ca         1 0BG      -0.154000
      9 C17         24.5300     7.8630     7.7990 ca         1 0BG      -0.173500
     10 C1          18.4560     6.2440     0.3530 ca         1 0BG       0.138500
     11 C11         21.7720     9.0520     7.0290 c3         1 0BG       0.132800
     12 C12         23.3190     7.5540     8.4460 ca         1 0BG       0.314000
     13 C14         24.3540     5.5690     9.4100 ca         1 0BG      -0.070500
     14 C16         25.6490     7.0260     7.9530 ca         1 0BG      -0.070500
     15 C18         22.0210     6.9400     2.9010 c3         1 0BG       0.206800
     16 C19         20.0240     5.9860    -1.2860 ca         1 0BG       0.176900
     17 C2          17.4390     6.4210     2.4230 cc         1 0BG      -0.180100
     18 C3          18.8070     6.2940     2.5800 cd         1 0BG      -0.206200
     19 C9          22.1830     6.2930     4.3000 c3         1 0BG       0.077000
     20 N2          17.2510     6.3890     1.0250 na         1 0BG      -0.318400
     21 N4          22.3460     7.2760     5.3820 ns         1 0BG      -0.507900
     22 N5          22.1950     8.3660     8.2950 nu         1 0BG      -0.933200
     23 N6          21.0730     5.9240    -0.4310 nb         1 0BG      -0.307000
     24 O1          20.1950     8.0210     5.4570 o          1 0BG      -0.593100
     25 H1          23.7920     5.0820     2.2460 h1         1 0BG       0.041700
     26 H2          22.9090     4.2980     0.9250 h1         1 0BG       0.041700
     27 H3          23.7080     5.8720     0.6550 h1         1 0BG       0.041700
     28 H5          26.4240     5.2290     8.8770 ha         1 0BG       0.113000
     29 H6          24.6130     8.7550     7.1860 ha         1 0BG       0.107500
     30 H7          22.5830     9.6840     6.6420 h1         1 0BG       0.065200
     31 H8          20.9160     9.7110     7.2300 h1         1 0BG       0.065200
     32 H9          24.2850     4.6810    10.0350 ha         1 0BG       0.108000
     33 H10         26.5840     7.2680     7.4520 ha         1 0BG       0.108000
     34 H11         22.8910     7.5870     2.7200 h1         1 0BG       0.058700
     35 H12         21.1500     7.6080     2.9190 h1         1 0BG       0.058700
     36 H13         20.2540     5.8990    -2.3470 h5         1 0BG       0.042100
     37 H14         16.6320     6.5200     3.1460 h4         1 0BG       0.219000
     38 H15         19.3050     6.2680     3.5460 ha         1 0BG       0.226000
     39 H16         21.3090     5.6650     4.5170 h1         1 0BG       0.066200
     40 H17         23.0650     5.6400     4.2980 h1         1 0BG       0.066200
     41 H18         16.3530     6.4580     0.5550 hn         1 0BG       0.360000
     42 H19         23.2530     7.3630     5.8260 hn         1 0BG       0.311500
     43 H20         21.4340     8.1350     8.9400 hn         1 0BG       0.477000
     44 H4          22.3070     6.1630     9.7590 ha         1 0BG       0.107500
@<TRIPOS>BOND
     1     1    10 ar  
     2     1    16 ar  
     3     2     4 1   
     4     2     5 1   
     5     2    15 1   
     6     3     4 ar  
     7     3    10 ar  
     8     3    18 1   
     9     4    23 ar  
    10     5    25 1   
    11     5    26 1   
    12     5    27 1   
    13     6    11 1   
    14     6    21 1   
    15     6    24 2   
    16     7    12 ar  
    17     7    13 ar  
    18     7    44 1   
    19     8    13 ar  
    20     8    14 ar  
    21     8    28 1   
    22     9    12 ar  
    23     9    14 ar  
    24     9    29 1   
    25    10    20 1   
    26    11    22 1   
    27    11    30 1   
    28    11    31 1   
    29    12    22 1   
    30    13    32 1   
    31    14    33 1   
    32    15    19 1   
    33    15    34 1   
    34    15    35 1   
    35    16    23 ar  
    36    16    36 1   
    37    17    18 2   
    38    17    20 1   
    39    17    37 1   
    40    18    38 1   
    41    19    21 1   
    42    19    39 1   
    43    19    40 1   
    44    20    41 1   
    45    21    42 1   
    46    22    43 1   
@<TRIPOS>SUBSTRUCTURE
     1 0BG         1 TEMP              0 ****  ****    0 ROOT
