@<TRIPOS>MOLECULE
0BI
   87    91     1     0     0
SMALL
No Charge or Current Charge


@<TRIPOS>ATOM
      1 N1           1.1570     0.2100     0.5410 ns         1 0BI      -0.487900
      2 C3          -0.2850    -0.0500     0.6940 c3         1 0BI       0.082700
      3 C5          -0.5050    -1.4140     1.4200 c3         1 0BI      -0.044100
      4 C8          -0.4240    -2.6650     0.5370 ca         1 0BI      -0.060300
      5 C9           0.7240    -2.9710    -0.2290 ca         1 0BI      -0.142000
      6 C11          0.8010    -4.1860    -0.9530 ca         1 0BI       0.115100
      7 C12         -0.2850    -5.0750    -0.9280 ca         1 0BI      -0.124000
      8 C14         -1.4370    -4.7690    -0.1900 ca         1 0BI      -0.091000
      9 C16         -1.5020    -3.5740     0.5430 ca         1 0BI      -0.119000
     10 O18          1.9040    -4.5640    -1.7000 os         1 0BI      -0.363100
     11 C19          3.0580    -3.7250    -1.9040 c3         1 0BI       0.163600
     12 C22          3.9650    -3.7570    -0.6480 c3         1 0BI      -0.101400
     13 C25          5.1380    -2.7520    -0.7580 c3         1 0BI      -0.119400
     14 C28          5.7160    -2.3030     0.6110 c3         1 0BI       0.213800
     15 N31          6.1900    -0.9050     0.5530 nu         1 0BI      -0.956200
     16 C33          5.4270     0.2050     0.1660 ca         1 0BI       0.303000
     17 C34          4.0220     0.1790     0.2540 ca         1 0BI      -0.158000
     18 C36          3.2390     1.2420    -0.2550 ca         1 0BI      -0.112600
     19 C37          3.9020     2.3550    -0.8170 ca         1 0BI      -0.086000
     20 C39          5.3090     2.4100    -0.8690 ca         1 0BI      -0.054300
     21 C40          6.0650     1.3270    -0.3810 ca         1 0BI      -0.144000
     22 C42          6.0040     3.6220    -1.4750 c3         1 0BI       0.201900
     23 O45          6.1300     4.6350    -0.4630 os         1 0BI      -0.445000
     24 C46          6.7720     5.8420    -0.9070 c3         1 0BI       0.143900
     25 C50          1.7240     1.1870    -0.2520 c          1 0BI       0.611700
     26 O51          1.0410     1.9360    -0.9380 o          1 0BI      -0.602100
     27 C52         -1.0120     1.1590     1.3790 c3         1 0BI       0.133300
     28 O54         -0.5810     1.3110     2.7530 oh         1 0BI      -0.657000
     29 C56         -2.5660     1.0700     1.3080 c3         1 0BI       0.136800
     30 N59         -3.1960     2.3090     1.8170 n7         1 0BI      -0.845400
     31 C61         -4.6350     2.2660     1.9550 cx         1 0BI       0.183500
     32 C62         -5.1610     1.7500     3.2740 cx         1 0BI      -0.144400
     33 C65         -5.2210     3.2240     2.9620 cx         1 0BI      -0.144400
     34 C68         -5.3690     1.9850     0.6670 ca         1 0BI      -0.045300
     35 C69         -5.7940     0.6770     0.3560 ca         1 0BI      -0.110000
     36 C71         -6.4680     0.4030    -0.8520 ca         1 0BI      -0.078300
     37 C72         -6.7160     1.4600    -1.7520 ca         1 0BI      -0.104000
     38 C74         -6.2960     2.7650    -1.4490 ca         1 0BI      -0.114000
     39 C76         -5.6230     3.0270    -0.2440 ca         1 0BI      -0.087000
     40 C78         -6.9100    -1.0260    -1.1740 c3         1 0BI      -0.015400
     41 C80         -8.4420    -1.1250    -1.3430 c3         1 0BI      -0.084100
     42 C84         -6.1620    -1.5820    -2.4060 c3         1 0BI      -0.084100
     43 HN1          1.7980    -0.3300     1.1060 hn         1 0BI       0.316500
     44 H3          -0.7110    -0.1430    -0.3160 h1         1 0BI       0.094700
     45 H5           0.2170    -1.5030     2.2400 hc         1 0BI       0.050200
     46 H5A         -1.4830    -1.4050     1.9120 hc         1 0BI       0.050200
     47 H9           1.5510    -2.2730    -0.2380 ha         1 0BI       0.113000
     48 H12         -0.2310    -6.0060    -1.4860 ha         1 0BI       0.126000
     49 H14         -2.2750    -5.4630    -0.1750 ha         1 0BI       0.116000
     50 H16         -2.3940    -3.3630     1.1290 ha         1 0BI       0.114000
     51 H19          3.6390    -4.0930    -2.7600 h1         1 0BI       0.051700
     52 H19A         2.7520    -2.6960    -2.1360 h1         1 0BI       0.051700
     53 H22          3.3690    -3.5250     0.2410 hc         1 0BI       0.049200
     54 H22A         4.3600    -4.7700    -0.5030 hc         1 0BI       0.049200
     55 H25          5.9410    -3.1810    -1.3700 hc         1 0BI       0.050200
     56 H25A         4.7790    -1.8800    -1.3140 hc         1 0BI       0.050200
     57 H28          4.9400    -2.3840     1.3840 h1         1 0BI       0.051700
     58 H28A         6.5320    -2.9800     0.9040 h1         1 0BI       0.051700
     59 HN31         7.2020    -0.7760     0.4870 hn         1 0BI       0.472000
     60 H34          3.5440    -0.6980     0.6730 ha         1 0BI       0.113000
     61 H37          3.3230     3.1870    -1.2140 ha         1 0BI       0.137000
     62 H40          7.1490     1.3520    -0.4470 ha         1 0BI       0.113000
     63 H42          6.9930     3.3290    -1.8540 h1         1 0BI       0.029200
     64 H42A         5.4150     3.9940    -2.3240 h1         1 0BI       0.029200
     65 H46          7.7920     5.6350    -1.2560 h1         1 0BI       0.028700
     66 H46A         6.2090     6.3040    -1.7280 h1         1 0BI       0.028700
     67 H46B         6.8330     6.5660    -0.0850 h1         1 0BI       0.028700
     68 H52         -0.7440     2.0620     0.8150 h1         1 0BI       0.104700
     69 HO54        -0.7990     0.4790     3.2230 ho         1 0BI       0.433000
     70 H56         -2.8620     0.8940     0.2640 h1         1 0BI       0.039700
     71 H56A        -2.9110     0.2100     1.8960 h1         1 0BI       0.039700
     72 HN59        -2.7820     2.5010     2.7370 hn         1 0BI       0.430000
     73 H62         -6.0960     1.1960     3.2670 hc         1 0BI       0.075450
     74 H62A        -4.4430     1.4160     4.0190 hc         1 0BI       0.075450
     75 H65         -4.5450     3.8860     3.4970 hc         1 0BI       0.075450
     76 H65A        -6.1960     3.6530     2.7430 hc         1 0BI       0.075450
     77 H69         -5.5900    -0.1300     1.0550 ha         1 0BI       0.105000
     78 H72         -7.2310     1.2710    -2.6910 ha         1 0BI       0.111000
     79 H74         -6.4880     3.5750    -2.1500 ha         1 0BI       0.114000
     80 H76         -5.2920     4.0380    -0.0170 ha         1 0BI       0.135000
     81 H78         -6.6480    -1.6760    -0.3300 hc         1 0BI       0.045700
     82 H80         -8.7850    -0.5470    -2.2100 hc         1 0BI       0.034367
     83 H80A        -8.7490    -2.1680    -1.4870 hc         1 0BI       0.034367
     84 H80B        -8.9520    -0.7410    -0.4510 hc         1 0BI       0.034367
     85 H84         -5.0770    -1.5300    -2.2510 hc         1 0BI       0.034367
     86 H84A        -6.4300    -2.6310    -2.5800 hc         1 0BI       0.034367
     87 H84B        -6.4070    -1.0110    -3.3090 hc         1 0BI       0.034367
@<TRIPOS>BOND
     1     1     2 1   
     2     1    25 1   
     3     1    43 1   
     4     2     3 1   
     5     2    27 1   
     6     2    44 1   
     7     3     4 1   
     8     3    45 1   
     9     3    46 1   
    10     4     5 ar  
    11     4     9 ar  
    12     5     6 ar  
    13     5    47 1   
    14     6     7 ar  
    15     6    10 1   
    16     7     8 ar  
    17     7    48 1   
    18     8     9 ar  
    19     8    49 1   
    20     9    50 1   
    21    10    11 1   
    22    11    12 1   
    23    11    51 1   
    24    11    52 1   
    25    12    13 1   
    26    12    53 1   
    27    12    54 1   
    28    13    14 1   
    29    13    55 1   
    30    13    56 1   
    31    14    15 1   
    32    14    57 1   
    33    14    58 1   
    34    15    16 1   
    35    15    59 1   
    36    16    17 ar  
    37    16    21 ar  
    38    17    18 ar  
    39    17    60 1   
    40    18    19 ar  
    41    18    25 1   
    42    19    20 ar  
    43    19    61 1   
    44    20    21 ar  
    45    20    22 1   
    46    21    62 1   
    47    22    23 1   
    48    22    63 1   
    49    22    64 1   
    50    23    24 1   
    51    24    65 1   
    52    24    66 1   
    53    24    67 1   
    54    25    26 2   
    55    27    28 1   
    56    27    29 1   
    57    27    68 1   
    58    28    69 1   
    59    29    30 1   
    60    29    70 1   
    61    29    71 1   
    62    30    31 1   
    63    30    72 1   
    64    31    32 1   
    65    31    33 1   
    66    31    34 1   
    67    32    33 1   
    68    32    73 1   
    69    32    74 1   
    70    33    75 1   
    71    33    76 1   
    72    34    35 ar  
    73    34    39 ar  
    74    35    36 ar  
    75    35    77 1   
    76    36    37 ar  
    77    36    40 1   
    78    37    38 ar  
    79    37    78 1   
    80    38    39 ar  
    81    38    79 1   
    82    39    80 1   
    83    40    41 1   
    84    40    42 1   
    85    40    81 1   
    86    41    82 1   
    87    41    83 1   
    88    41    84 1   
    89    42    85 1   
    90    42    86 1   
    91    42    87 1   
@<TRIPOS>SUBSTRUCTURE
     1 0BI         1 TEMP              0 ****  ****    0 ROOT
