@<TRIPOS>MOLECULE
0BI
   87    91     1     0     0
SMALL
abcg2


@<TRIPOS>ATOM
      1 N1           1.2490    -0.3000     0.4430 ns         1 0BI      -0.487900
      2 C3          -0.1260    -0.7150     0.6340 c3         1 0BI       0.082700
      3 C5          -0.1610    -2.0840     1.3260 c3         1 0BI      -0.044100
      4 C8           0.2960    -3.2060     0.4360 ca         1 0BI      -0.060300
      5 C9           1.6210    -3.6270     0.4510 ca         1 0BI      -0.142000
      6 C11          2.0480    -4.6750    -0.3620 ca         1 0BI       0.115100
      7 C12          1.1360    -5.3150    -1.1940 ca         1 0BI      -0.124000
      8 C14         -0.1880    -4.8990    -1.2090 ca         1 0BI      -0.091000
      9 C16         -0.6080    -3.8470    -0.4080 ca         1 0BI      -0.119000
     10 O18          3.3350    -5.1180    -0.3640 os         1 0BI      -0.363100
     11 C19          4.3380    -4.1650    -0.7170 c3         1 0BI       0.163600
     12 C22          5.0510    -3.5600     0.4810 c3         1 0BI      -0.101400
     13 C25          5.9550    -2.4090     0.0430 c3         1 0BI      -0.119400
     14 C28          6.2370    -1.4040     1.1720 c3         1 0BI       0.213800
     15 N31          6.4090    -0.0420     0.7230 nu         1 0BI      -0.956200
     16 C33          5.4070     0.6350     0.0780 ca         1 0BI       0.303000
     17 C34          4.0760     0.1940     0.0940 ca         1 0BI      -0.158000
     18 C36          3.0820     0.8990    -0.5790 ca         1 0BI      -0.112600
     19 C37          3.3960     2.0580    -1.2780 ca         1 0BI      -0.086000
     20 C39          4.7080     2.5220    -1.2860 ca         1 0BI      -0.054300
     21 C40          5.6950     1.8190    -0.6170 ca         1 0BI      -0.144000
     22 C42          5.0500     3.8010    -1.9940 c3         1 0BI       0.201900
     23 O45          5.0480     4.8470    -1.0500 os         1 0BI      -0.445000
     24 C46          5.3640     6.0870    -1.6330 c3         1 0BI       0.143900
     25 C50          1.6610     0.4260    -0.6150 c          1 0BI       0.611700
     26 O51          0.9320     0.7000    -1.5580 o          1 0BI      -0.602100
     27 C52         -0.9020     0.3730     1.3970 c3         1 0BI       0.133300
     28 O54         -0.3680     0.5880     2.6880 oh         1 0BI      -0.657000
     29 C56         -2.4010     0.1130     1.4330 c3         1 0BI       0.136800
     30 N59         -3.1080     1.2790     1.9270 n7         1 0BI      -0.845400
     31 C61         -4.5340     1.1290     1.9370 cx         1 0BI       0.183500
     32 C62         -5.1450     0.1220     2.8840 cx         1 0BI      -0.144400
     33 C65         -5.2630     1.5860     3.1690 cx         1 0BI      -0.144400
     34 C68         -5.1830     1.3940     0.6120 ca         1 0BI      -0.045300
     35 C69         -6.5060     1.0300     0.3530 ca         1 0BI      -0.110000
     36 C71         -7.1290     1.3080    -0.8580 ca         1 0BI      -0.078300
     37 C72         -6.3980     1.9670    -1.8470 ca         1 0BI      -0.104000
     38 C74         -5.0830     2.3330    -1.6100 ca         1 0BI      -0.114000
     39 C76         -4.4780     2.0530    -0.3910 ca         1 0BI      -0.087000
     40 C78         -8.5590     0.8810    -1.0980 c3         1 0BI      -0.015400
     41 C80         -9.4490     2.0610    -1.4880 c3         1 0BI      -0.084100
     42 C84         -8.6290    -0.2300    -2.1460 c3         1 0BI      -0.084100
     43 HN1          1.8370    -0.3170     1.2620 hn         1 0BI       0.316500
     44 H3          -0.5820    -0.8100    -0.3540 h1         1 0BI       0.094700
     45 H5           0.4550    -2.0600     2.2300 hc         1 0BI       0.050200
     46 H5A         -1.1820    -2.2920     1.6510 hc         1 0BI       0.050200
     47 H9           2.3090    -3.1480     1.1350 ha         1 0BI       0.113000
     48 H12          1.4640    -6.1340    -1.8220 ha         1 0BI       0.126000
     49 H14         -0.8960    -5.3990    -1.8580 ha         1 0BI       0.116000
     50 H16         -1.6450    -3.5350    -0.4260 ha         1 0BI       0.114000
     51 H19          5.0530    -4.6880    -1.3570 h1         1 0BI       0.051700
     52 H19A         3.8910    -3.3650    -1.3170 h1         1 0BI       0.051700
     53 H22          4.3100    -3.1710     1.1840 hc         1 0BI       0.049200
     54 H22A         5.6120    -4.3240     1.0240 hc         1 0BI       0.049200
     55 H25          6.8940    -2.7840    -0.3690 hc         1 0BI       0.050200
     56 H25A         5.4620    -1.8740    -0.7750 hc         1 0BI       0.050200
     57 H28          5.4220    -1.4310     1.9010 h1         1 0BI       0.051700
     58 H28A         7.1360    -1.6800     1.7220 h1         1 0BI       0.051700
     59 HN31         7.3450     0.2160     0.4540 hn         1 0BI       0.472000
     60 H34          3.8240    -0.7310     0.5950 ha         1 0BI       0.113000
     61 H37          2.6280     2.5960    -1.8170 ha         1 0BI       0.137000
     62 H40          6.7200     2.1750    -0.6480 ha         1 0BI       0.113000
     63 H42          6.0330     3.7180    -2.4780 h1         1 0BI       0.029200
     64 H42A         4.3160     3.9940    -2.7890 h1         1 0BI       0.029200
     65 H46          6.3660     6.0880    -2.0800 h1         1 0BI       0.028700
     66 H46A         4.6490     6.3700    -2.4150 h1         1 0BI       0.028700
     67 H46B         5.3350     6.8440    -0.8500 h1         1 0BI       0.028700
     68 H52         -0.7510     1.3130     0.8570 h1         1 0BI       0.104700
     69 HO54        -0.5940    -0.1630     3.2480 ho         1 0BI       0.433000
     70 H56         -2.7410    -0.1010     0.4160 h1         1 0BI       0.039700
     71 H56A        -2.6240    -0.7870     2.0290 h1         1 0BI       0.039700
     72 HN59        -2.7710     1.5240     2.8490 hn         1 0BI       0.430000
     73 H62         -6.0310    -0.4280     2.5970 hc         1 0BI       0.075450
     74 H62A        -4.4510    -0.4520     3.4860 hc         1 0BI       0.075450
     75 H65         -4.6790     2.0030     3.9820 hc         1 0BI       0.075450
     76 H65A        -6.2270     2.0590     3.0270 hc         1 0BI       0.075450
     77 H69         -7.0850     0.5130     1.1110 ha         1 0BI       0.105000
     78 H72         -6.8540     2.1960    -2.8030 ha         1 0BI       0.111000
     79 H74         -4.5210     2.8460    -2.3800 ha         1 0BI       0.114000
     80 H76         -3.4540     2.3550    -0.2130 ha         1 0BI       0.135000
     81 H78         -8.9410     0.4750    -0.1560 hc         1 0BI       0.045700
     82 H80         -9.1380     2.5040    -2.4360 hc         1 0BI       0.034367
     83 H80A       -10.4840     1.7360    -1.6020 hc         1 0BI       0.034367
     84 H80B        -9.4260     2.8450    -0.7300 hc         1 0BI       0.034367
     85 H84         -8.0330    -1.0940    -1.8480 hc         1 0BI       0.034367
     86 H84A        -9.6570    -0.5670    -2.2860 hc         1 0BI       0.034367
     87 H84B        -8.2580     0.1130    -3.1140 hc         1 0BI       0.034367
@<TRIPOS>BOND
     1     1     2 1   
     2     1    25 1   
     3     1    43 1   
     4     2     3 1   
     5     2    27 1   
     6     2    44 1   
     7     3     4 1   
     8     3    45 1   
     9     3    46 1   
    10     4     5 ar  
    11     4     9 ar  
    12     5     6 ar  
    13     5    47 1   
    14     6     7 ar  
    15     6    10 1   
    16     7     8 ar  
    17     7    48 1   
    18     8     9 ar  
    19     8    49 1   
    20     9    50 1   
    21    10    11 1   
    22    11    12 1   
    23    11    51 1   
    24    11    52 1   
    25    12    13 1   
    26    12    53 1   
    27    12    54 1   
    28    13    14 1   
    29    13    55 1   
    30    13    56 1   
    31    14    15 1   
    32    14    57 1   
    33    14    58 1   
    34    15    16 1   
    35    15    59 1   
    36    16    17 ar  
    37    16    21 ar  
    38    17    18 ar  
    39    17    60 1   
    40    18    19 ar  
    41    18    25 1   
    42    19    20 ar  
    43    19    61 1   
    44    20    21 ar  
    45    20    22 1   
    46    21    62 1   
    47    22    23 1   
    48    22    63 1   
    49    22    64 1   
    50    23    24 1   
    51    24    65 1   
    52    24    66 1   
    53    24    67 1   
    54    25    26 2   
    55    27    28 1   
    56    27    29 1   
    57    27    68 1   
    58    28    69 1   
    59    29    30 1   
    60    29    70 1   
    61    29    71 1   
    62    30    31 1   
    63    30    72 1   
    64    31    32 1   
    65    31    33 1   
    66    31    34 1   
    67    32    33 1   
    68    32    73 1   
    69    32    74 1   
    70    33    75 1   
    71    33    76 1   
    72    34    35 ar  
    73    34    39 ar  
    74    35    36 ar  
    75    35    77 1   
    76    36    37 ar  
    77    36    40 1   
    78    37    38 ar  
    79    37    78 1   
    80    38    39 ar  
    81    38    79 1   
    82    39    80 1   
    83    40    41 1   
    84    40    42 1   
    85    40    81 1   
    86    41    82 1   
    87    41    83 1   
    88    41    84 1   
    89    42    85 1   
    90    42    86 1   
    91    42    87 1   
@<TRIPOS>SUBSTRUCTURE
     1 0BI         1 TEMP              0 ****  ****    0 ROOT
