@<TRIPOS>MOLECULE
0BJ
   36    37     1     0     0
SMALL
abcg2


@<TRIPOS>ATOM
      1 C14         19.1920   -38.7060   -15.6990 c          1 0BJ       0.638300
      2 C5          21.7060   -38.1700   -17.8770 c3         1 0BJ       0.159900
      3 C6          21.3900   -35.6350   -15.2670 ca         1 0BJ      -0.120000
      4 C11         18.6890   -36.2640   -15.4230 ca         1 0BJ       0.180100
      5 C8          20.4460   -34.6110   -15.1940 ca         1 0BJ      -0.022300
      6 C9          20.8760   -33.1770   -15.0630 c3         1 0BJ      -0.052800
      7 C10         19.0970   -34.9420   -15.2670 ca         1 0BJ      -0.195000
      8 C13         19.6330   -37.2920   -15.5060 ca         1 0BJ      -0.142600
      9 C1          20.9880   -36.9560   -15.4230 ca         1 0BJ      -0.104600
     10 C15         19.5760   -39.7480   -14.7540 ca         1 0BJ      -0.328600
     11 C16         19.9500   -39.4960   -13.4080 ca         1 0BJ       0.246600
     12 C18         20.4290   -40.5170   -12.6000 ca         1 0BJ      -0.239500
     13 C19         20.5250   -41.8090   -13.1070 ca         1 0BJ       0.014000
     14 C2          22.0610   -38.0010   -15.4770 c          1 0BJ       0.613700
     15 C20         20.1200   -42.1120   -14.3960 ca         1 0BJ      -0.239500
     16 C21         19.6180   -41.1000   -15.2080 ca         1 0BJ       0.246600
     17 O17         19.7890   -38.2450   -12.9240 oh         1 0BJ      -0.536100
     18 O22         19.2030   -41.4320   -16.4400 oh         1 0BJ      -0.536100
     19 O23         18.5730   -38.9830   -16.7390 o          1 0BJ      -0.572100
     20 O3          22.7540   -38.2700   -14.5220 o          1 0BJ      -0.427000
     21 O4          22.2700   -38.6500   -16.6310 os         1 0BJ      -0.446100
     22 H1          22.2650   -38.6840   -18.6540 h1         1 0BJ       0.053367
     23 H2          20.6520   -38.4250   -17.9460 h1         1 0BJ       0.053367
     24 H3          21.8440   -37.0950   -17.9670 h1         1 0BJ       0.053367
     25 H4          22.4450   -35.4020   -15.2110 ha         1 0BJ       0.129000
     26 H5          20.9740   -32.7180   -16.0510 hc         1 0BJ       0.049367
     27 H6          20.1440   -32.5960   -14.5010 hc         1 0BJ       0.049367
     28 H7          21.8430   -33.1010   -14.5670 hc         1 0BJ       0.049367
     29 H8          18.3430   -34.1670   -15.1900 ha         1 0BJ       0.118000
     30 H9          20.7110   -40.2990   -11.5780 ha         1 0BJ       0.128500
     31 H10         20.9050   -42.5970   -12.4700 ha         1 0BJ       0.117000
     32 H11         20.1660   -43.1210   -14.7820 ha         1 0BJ       0.128500
     33 H12         16.8250   -35.8190   -15.3290 ho         1 0BJ       0.468000
     34 H13         20.1080   -38.2010   -12.0110 ho         1 0BJ       0.494000
     35 H14         18.8060   -40.6160   -16.8390 ho         1 0BJ       0.494000
     36 O12         17.3740   -36.6070   -15.4490 oh         1 0BJ      -0.520100
@<TRIPOS>BOND
     1     1     8 1   
     2     1    10 1   
     3     1    19 2   
     4     2    21 1   
     5     2    22 1   
     6     2    23 1   
     7     2    24 1   
     8     3     5 ar  
     9     3     9 ar  
    10     3    25 1   
    11     4     7 ar  
    12     4     8 ar  
    13     4    36 1   
    14     5     6 1   
    15     5     7 ar  
    16     6    26 1   
    17     6    27 1   
    18     6    28 1   
    19     7    29 1   
    20     8     9 ar  
    21     9    14 1   
    22    10    11 ar  
    23    10    16 ar  
    24    11    12 ar  
    25    11    17 1   
    26    12    13 ar  
    27    12    30 1   
    28    13    15 ar  
    29    13    31 1   
    30    14    20 2   
    31    14    21 1   
    32    15    16 ar  
    33    15    32 1   
    34    16    18 1   
    35    17    34 1   
    36    18    35 1   
    37    33    36 1   
@<TRIPOS>SUBSTRUCTURE
     1 0BJ         1 TEMP              0 ****  ****    0 ROOT
