@<TRIPOS>MOLECULE
0BJ
   36    37     1     0     0
SMALL
No Charge or Current Charge


@<TRIPOS>ATOM
      1 C14         19.1120   -38.7480   -15.6600 c          1 0BJ       0.638300
      2 C5          21.6580   -37.9390   -18.0320 c3         1 0BJ       0.159900
      3 C6          21.4210   -35.7060   -15.3330 ca         1 0BJ      -0.120000
      4 C11         18.6720   -36.2700   -15.4160 ca         1 0BJ       0.180100
      5 C8          20.4920   -34.6580   -15.2270 ca         1 0BJ      -0.022300
      6 C9          20.9700   -33.2220   -15.0730 c3         1 0BJ      -0.052800
      7 C10         19.1180   -34.9460   -15.2750 ca         1 0BJ      -0.195000
      8 C13         19.5990   -37.3280   -15.5160 ca         1 0BJ      -0.142600
      9 C1          20.9900   -37.0390   -15.4850 ca         1 0BJ      -0.104600
     10 C15         19.5840   -39.8100   -14.7000 ca         1 0BJ      -0.328600
     11 C16         19.8090   -39.5290   -13.3360 ca         1 0BJ       0.246600
     12 C18         20.2820   -40.5260   -12.4710 ca         1 0BJ      -0.239500
     13 C19         20.5330   -41.8200   -12.9480 ca         1 0BJ       0.014000
     14 C2          22.0280   -38.1290   -15.6220 c          1 0BJ       0.613700
     15 C20         20.2870   -42.1140   -14.2950 ca         1 0BJ      -0.239500
     16 C21         19.8090   -41.1240   -15.1600 ca         1 0BJ       0.246600
     17 O17         19.5350   -38.3030   -12.8170 oh         1 0BJ      -0.536100
     18 O22         19.5670   -41.4620   -16.4530 oh         1 0BJ      -0.536100
     19 O23         18.4090   -39.0700   -16.6140 o          1 0BJ      -0.572100
     20 O3          22.6650   -38.5370   -14.6640 o          1 0BJ      -0.427000
     21 O4          22.2880   -38.5730   -16.8990 os         1 0BJ      -0.446100
     22 H1          22.0190   -38.3880   -18.9660 h1         1 0BJ       0.053367
     23 H2          20.5690   -38.0590   -18.0060 h1         1 0BJ       0.053367
     24 H3          21.8930   -36.8670   -18.0650 h1         1 0BJ       0.053367
     25 H4          22.4870   -35.4860   -15.3060 ha         1 0BJ       0.129000
     26 H5          21.1000   -32.7470   -16.0530 hc         1 0BJ       0.049367
     27 H6          20.2530   -32.6210   -14.5010 hc         1 0BJ       0.049367
     28 H7          21.9310   -33.1750   -14.5470 hc         1 0BJ       0.049367
     29 H8          18.3990   -34.1350   -15.1950 ha         1 0BJ       0.118000
     30 H9          20.4550   -40.3090   -11.4200 ha         1 0BJ       0.128500
     31 H10         20.9010   -42.5920   -12.2750 ha         1 0BJ       0.117000
     32 H11         20.4640   -43.1200   -14.6690 ha         1 0BJ       0.128500
     33 H12         16.8590   -35.6590   -15.3410 ho         1 0BJ       0.468000
     34 H13         19.7490   -38.3230   -11.8610 ho         1 0BJ       0.494000
     35 H14         19.0520   -40.7140   -16.8410 ho         1 0BJ       0.494000
     36 O12         17.3300   -36.5150   -15.4270 oh         1 0BJ      -0.520100
@<TRIPOS>BOND
     1     1     8 1   
     2     1    10 1   
     3     1    19 2   
     4     2    21 1   
     5     2    22 1   
     6     2    23 1   
     7     2    24 1   
     8     3     5 ar  
     9     3     9 ar  
    10     3    25 1   
    11     4     7 ar  
    12     4     8 ar  
    13     4    36 1   
    14     5     6 1   
    15     5     7 ar  
    16     6    26 1   
    17     6    27 1   
    18     6    28 1   
    19     7    29 1   
    20     8     9 ar  
    21     9    14 1   
    22    10    11 ar  
    23    10    16 ar  
    24    11    12 ar  
    25    11    17 1   
    26    12    13 ar  
    27    12    30 1   
    28    13    15 ar  
    29    13    31 1   
    30    14    20 2   
    31    14    21 1   
    32    15    16 ar  
    33    15    32 1   
    34    16    18 1   
    35    17    34 1   
    36    18    35 1   
    37    33    36 1   
@<TRIPOS>SUBSTRUCTURE
     1 0BJ         1 TEMP              0 ****  ****    0 ROOT
