@<TRIPOS>MOLECULE
0BK
   55    57     1     0     0
SMALL
No Charge or Current Charge


@<TRIPOS>ATOM
      1 C1          25.2450   -15.9050   -14.0610 c3         1 0BK       0.159900
      2 C3          23.9920   -13.9630   -14.8970 ca         1 0BK       0.349300
      3 C4          22.7780   -13.4430   -15.3700 ca         1 0BK      -0.172000
      4 C5          22.7190   -12.0770   -15.7240 ca         1 0BK       0.070500
      5 C7          24.9450   -11.8880   -15.1380 ca         1 0BK       0.164900
      6 C12         20.5640    -9.1690   -17.0560 ca         1 0BK      -0.036000
      7 C15         18.8090    -7.2040   -18.0560 ca         1 0BK       0.137000
      8 C17         20.1480    -6.8310   -17.7620 ca         1 0BK      -0.086300
      9 C18         21.0080    -7.8490   -17.2630 ca         1 0BK      -0.125000
     10 C19         20.6670    -5.3670   -18.0030 c6         1 0BK       0.200500
     11 C23         21.7210    -5.8110   -20.2710 c6         1 0BK      -0.064400
     12 C24         23.1470    -5.4510   -19.7220 c6         1 0BK      -0.308300
     13 O2          24.0330   -15.2980   -14.5550 os         1 0BK      -0.453300
     14 N6          23.8240   -11.2990   -15.6020 nb         1 0BK      -0.222000
     15 N8          25.0840   -13.1800   -14.7790 nb         1 0BK      -0.255000
     16 C9          21.4300   -11.4600   -16.2430 c          1 0BK       0.509600
     17 O10         20.4070   -12.1260   -16.3720 o          1 0BK      -0.577100
     18 N11         21.5130   -10.1050   -16.5530 ns         1 0BK      -0.126000
     19 C13         19.2270    -9.4990   -17.3510 ca         1 0BK      -0.108000
     20 C14         18.3610    -8.5170   -17.8500 ca         1 0BK      -0.120000
     21 F16         17.9190    -6.3170   -18.5530 f          1 0BK      -0.186000
     22 C20         19.7720    -4.3540   -17.1910 c3         1 0BK       0.196600
     23 F21         20.2160    -3.0690   -17.2650 f          1 0BK      -0.260000
     24 C22         20.6240    -5.0270   -19.5240 c6         1 0BK      -0.108400
     25 C25         24.1030    -6.6400   -20.1210 c3         1 0BK      -0.083100
     26 C26         23.0900    -5.2620   -18.2100 c2         1 0BK       0.653200
     27 N27         24.2820    -5.2680   -17.5720 nv         1 0BK      -1.044200
     28 N28         22.0510    -5.2110   -17.4710 n2         1 0BK      -0.668900
     29 S29         23.7520    -3.9140   -20.5460 s6         1 0BK       1.072000
     30 O31         23.0160    -2.7710   -19.9920 o          1 0BK      -0.508000
     31 O32         23.7080    -4.1370   -21.9970 o          1 0BK      -0.508000
     32 H2          25.0810   -16.9680   -13.8450 h1         1 0BK       0.055367
     33 H1          26.0520   -15.8300   -14.8020 h1         1 0BK       0.055367
     34 H3          25.5780   -15.4190   -13.1350 h1         1 0BK       0.055367
     35 H4          21.9090   -14.0880   -15.4580 ha         1 0BK       0.172000
     36 H5          25.8260   -11.2560   -15.0430 h5         1 0BK       0.054100
     37 H9          22.0450    -7.6310   -17.0280 ha         1 0BK       0.127000
     38 H14         21.6460    -5.6330   -21.3530 hc         1 0BK       0.070700
     39 H15         21.5270    -6.8860   -20.1430 hc         1 0BK       0.070700
     40 H22         25.5610    -3.5380   -19.0470 h1         1 0BK       0.105700
     41 H23         26.0540    -4.5210   -20.4860 h1         1 0BK       0.105700
     42 H21         25.8030    -2.7470   -20.6430 h1         1 0BK       0.105700
     43 H6          22.4290    -9.7080   -16.3880 hn         1 0BK       0.184000
     44 H7          18.8410   -10.5030   -17.2070 ha         1 0BK       0.155000
     45 H8          17.3300    -8.7740   -18.0830 ha         1 0BK       0.137000
     46 H11         18.7410    -4.3640   -17.5580 h1         1 0BK       0.059200
     47 H10         19.7620    -4.6530   -16.1360 h1         1 0BK       0.059200
     48 H13         20.7540    -3.9490   -19.6780 hc         1 0BK       0.082200
     49 H12         19.6450    -5.2620   -19.9580 hc         1 0BK       0.082200
     50 H18         23.7920    -7.5750   -19.6370 hc         1 0BK       0.051367
     51 H17         24.0870    -6.8220   -21.2040 hc         1 0BK       0.051367
     52 H16         25.1490    -6.4710   -19.8420 hc         1 0BK       0.051367
     53 H19         24.1460    -5.2920   -16.5690 hn         1 0BK       0.472000
     54 H20         24.9280    -5.9650   -17.9130 hn         1 0BK       0.472000
     55 C30         25.4820    -3.6590   -20.1310 c3         1 0BK      -0.332100
@<TRIPOS>BOND
     1     1    13 1   
     2     1    32 1   
     3     1    33 1   
     4     1    34 1   
     5     2     3 ar  
     6     2    13 1   
     7     2    15 ar  
     8     3     4 ar  
     9     3    35 1   
    10     4    14 ar  
    11     4    16 1   
    12     5    14 ar  
    13     5    15 ar  
    14     5    36 1   
    15     6     9 ar  
    16     6    18 1   
    17     6    19 ar  
    18     7     8 ar  
    19     7    20 ar  
    20     7    21 1   
    21     8     9 ar  
    22     8    10 1   
    23     9    37 1   
    24    10    22 1   
    25    10    24 1   
    26    10    28 1   
    27    11    12 1   
    28    11    24 1   
    29    11    38 1   
    30    11    39 1   
    31    12    25 1   
    32    12    26 1   
    33    12    29 1   
    34    16    17 2   
    35    16    18 1   
    36    18    43 1   
    37    19    20 ar  
    38    19    44 1   
    39    20    45 1   
    40    22    23 1   
    41    22    46 1   
    42    22    47 1   
    43    24    48 1   
    44    24    49 1   
    45    25    50 1   
    46    25    51 1   
    47    25    52 1   
    48    26    27 1   
    49    26    28 2   
    50    27    53 1   
    51    27    54 1   
    52    29    30 2   
    53    29    31 2   
    54    29    55 1   
    55    40    55 1   
    56    41    55 1   
    57    42    55 1   
@<TRIPOS>SUBSTRUCTURE
     1 0BK         1 TEMP              0 ****  ****    0 ROOT
