@<TRIPOS>MOLECULE
0BK
   55    57     1     0     0
SMALL
abcg2


@<TRIPOS>ATOM
      1 C1          25.1250   -15.7760   -14.0630 c3         1 0BK       0.159900
      2 C3          23.8700   -13.9350   -14.9030 ca         1 0BK       0.349300
      3 C4          22.6810   -13.4280   -15.4510 ca         1 0BK      -0.172000
      4 C5          22.6630   -12.0800   -15.7200 ca         1 0BK       0.070500
      5 C7          24.7890   -11.8640   -14.9600 ca         1 0BK       0.164900
      6 C12         20.6160    -9.2160   -17.0420 ca         1 0BK      -0.036000
      7 C15         18.9200    -7.2940   -18.0480 ca         1 0BK       0.137000
      8 C17         20.2260    -6.9080   -17.7420 ca         1 0BK      -0.086300
      9 C18         21.0540    -7.9030   -17.2340 ca         1 0BK      -0.125000
     10 C19         20.7520    -5.4810   -17.9810 c6         1 0BK       0.200500
     11 C23         21.7560    -5.8550   -20.2350 c6         1 0BK      -0.064400
     12 C24         23.1620    -5.5110   -19.7190 c6         1 0BK      -0.308300
     13 O2          23.9150   -15.2370   -14.6340 os         1 0BK      -0.453300
     14 N6          23.7210   -11.2810   -15.4770 nb         1 0BK      -0.222000
     15 N8          24.9190   -13.1600   -14.6570 nb         1 0BK      -0.255000
     16 C9          21.4200   -11.4530   -16.3050 c          1 0BK       0.509600
     17 O10         20.4210   -12.1270   -16.5380 o          1 0BK      -0.577100
     18 N11         21.5490   -10.1260   -16.5220 ns         1 0BK      -0.126000
     19 C13         19.3020    -9.5600   -17.3640 ca         1 0BK      -0.108000
     20 C14         18.4570    -8.5810   -17.8700 ca         1 0BK      -0.120000
     21 F16         18.0410    -6.3850   -18.5550 f          1 0BK      -0.186000
     22 C20         19.8980    -4.5290   -17.1340 c3         1 0BK       0.196600
     23 F21         20.3440    -3.2040   -17.2990 f          1 0BK      -0.260000
     24 C22         20.6640    -5.1250   -19.4740 c6         1 0BK      -0.108400
     25 C25         24.1590    -6.5670   -20.2090 c3         1 0BK      -0.083100
     26 C26         23.1450    -5.3680   -18.1950 c2         1 0BK       0.653200
     27 N27         24.3690    -5.1890   -17.6040 nv         1 0BK      -1.044200
     28 N28         22.1050    -5.3760   -17.4560 n2         1 0BK      -0.668900
     29 S29         23.6070    -3.8630   -20.4730 s6         1 0BK       1.072000
     30 O31         22.9210    -2.8160   -19.7340 o          1 0BK      -0.508000
     31 O32         23.3410    -3.9640   -21.8990 o          1 0BK      -0.508000
     32 H2          24.9270   -16.8360   -13.9340 h1         1 0BK       0.055367
     33 H1          25.9650   -15.6230   -14.7390 h1         1 0BK       0.055367
     34 H3          25.3340   -15.3050   -13.1040 h1         1 0BK       0.055367
     35 H4          21.8310   -14.0620   -15.6480 ha         1 0BK       0.172000
     36 H5          25.6480   -11.2340   -14.7580 h5         1 0BK       0.054100
     37 H9          22.0740    -7.6470   -16.9850 ha         1 0BK       0.127000
     38 H14         21.7030    -5.6510   -21.3030 hc         1 0BK       0.070700
     39 H15         21.6340    -6.9340   -20.1150 hc         1 0BK       0.070700
     40 H22         25.6070    -3.5880   -19.2240 h1         1 0BK       0.105700
     41 H23         25.9060    -4.3750   -20.8170 h1         1 0BK       0.105700
     42 H21         25.5330    -2.6300   -20.7330 h1         1 0BK       0.105700
     43 H6          22.4600    -9.7560   -16.2730 hn         1 0BK       0.184000
     44 H7          18.9490   -10.5670   -17.2230 ha         1 0BK       0.155000
     45 H8          17.4340    -8.8140   -18.1310 ha         1 0BK       0.137000
     46 H11         18.8530    -4.5490   -17.4300 h1         1 0BK       0.059200
     47 H10         20.0060    -4.7760   -16.0780 h1         1 0BK       0.059200
     48 H13         20.7780    -4.0480   -19.5830 hc         1 0BK       0.082200
     49 H12         19.6890    -5.3960   -19.8720 hc         1 0BK       0.082200
     50 H18         23.8850    -7.5270   -19.7690 hc         1 0BK       0.051367
     51 H17         24.0960    -6.6570   -21.2930 hc         1 0BK       0.051367
     52 H16         25.1920    -6.3550   -19.9440 hc         1 0BK       0.051367
     53 H19         24.3660    -5.2310   -16.5950 hn         1 0BK       0.472000
     54 H20         25.1820    -5.5990   -18.0320 hn         1 0BK       0.472000
     55 C30         25.3570    -3.6060   -20.2810 c3         1 0BK      -0.332100
@<TRIPOS>BOND
     1     1    13 1   
     2     1    32 1   
     3     1    33 1   
     4     1    34 1   
     5     2     3 ar  
     6     2    13 1   
     7     2    15 ar  
     8     3     4 ar  
     9     3    35 1   
    10     4    14 ar  
    11     4    16 1   
    12     5    14 ar  
    13     5    15 ar  
    14     5    36 1   
    15     6     9 ar  
    16     6    18 1   
    17     6    19 ar  
    18     7     8 ar  
    19     7    20 ar  
    20     7    21 1   
    21     8     9 ar  
    22     8    10 1   
    23     9    37 1   
    24    10    22 1   
    25    10    24 1   
    26    10    28 1   
    27    11    12 1   
    28    11    24 1   
    29    11    38 1   
    30    11    39 1   
    31    12    25 1   
    32    12    26 1   
    33    12    29 1   
    34    16    17 2   
    35    16    18 1   
    36    18    43 1   
    37    19    20 ar  
    38    19    44 1   
    39    20    45 1   
    40    22    23 1   
    41    22    46 1   
    42    22    47 1   
    43    24    48 1   
    44    24    49 1   
    45    25    50 1   
    46    25    51 1   
    47    25    52 1   
    48    26    27 1   
    49    26    28 2   
    50    27    53 1   
    51    27    54 1   
    52    29    30 2   
    53    29    31 2   
    54    29    55 1   
    55    40    55 1   
    56    41    55 1   
    57    42    55 1   
@<TRIPOS>SUBSTRUCTURE
     1 0BK         1 TEMP              0 ****  ****    0 ROOT
