@<TRIPOS>MOLECULE
0BL
   49    52     1     0     0
SMALL
No Charge or Current Charge


@<TRIPOS>ATOM
      1 C01        -12.4760   -20.7330    -5.1570 c3         1 0BL      -0.081100
      2 C02        -13.7420   -20.9500    -4.3000 c5         1 0BL      -0.017400
      3 C03        -14.9030   -19.9060    -4.5550 c5         1 0BL       0.072300
      4 C05        -14.5940   -19.9510    -2.3260 ca         1 0BL       0.114100
      5 C06        -13.5550   -20.6980    -2.8350 ca         1 0BL      -0.160300
      6 C07        -12.5180   -21.1480    -2.0000 ca         1 0BL      -0.056000
      7 C08        -12.5620   -20.8160    -0.6300 ca         1 0BL      -0.141000
      8 C09        -13.6330   -20.0550    -0.1130 ca         1 0BL      -0.080000
      9 C10        -14.6660   -19.6200    -0.9670 ca         1 0BL      -0.131000
     10 C11        -15.9120   -20.4640    -5.6100 c          1 0BL       0.593100
     11 C14        -18.3370   -21.1330    -5.7290 c3         1 0BL       0.178300
     12 C15        -19.1390   -20.0310    -6.3810 cc         1 0BL      -0.207300
     13 C16        -19.8770   -20.0540    -7.5540 cd         1 0BL      -0.054000
     14 C17        -20.4140   -18.7640    -7.8580 cd         1 0BL      -0.063000
     15 C18        -20.0910   -17.7610    -6.9750 cc         1 0BL      -0.272900
     16 C20        -20.4810   -16.3610    -7.0180 ce         1 0BL       0.684800
     17 C23        -20.2100   -21.2550    -8.3660 ca         1 0BL      -0.015000
     18 C24        -20.2640   -22.5550    -7.8090 ca         1 0BL      -0.098500
     19 C25        -20.5900   -23.6690    -8.6030 ca         1 0BL      -0.111000
     20 C26        -20.8740   -23.5050    -9.9660 ca         1 0BL      -0.107000
     21 C27        -20.8410   -22.2220   -10.5330 ca         1 0BL      -0.111000
     22 C28        -20.5180   -21.1080    -9.7380 ca         1 0BL      -0.098500
     23 N13        -17.1490   -20.6460    -5.0310 ns         1 0BL      -0.503900
     24 N21        -20.0900   -15.5150    -6.0470 nv         1 0BL      -1.083200
     25 N22        -21.1880   -15.9000    -7.9610 n2         1 0BL      -0.815100
     26 O04        -15.5340   -19.5990    -3.2510 os         1 0BL      -0.353100
     27 O12        -15.6810   -20.7140    -6.7860 o          1 0BL      -0.588100
     28 S19        -19.0930   -18.4090    -5.6860 ss         1 0BL       0.220000
     29 H013       -11.6990   -21.4650    -4.9080 hc         1 0BL       0.046700
     30 H011       -12.7000   -20.8390    -6.2250 hc         1 0BL       0.046700
     31 H012       -12.0560   -19.7320    -4.9990 hc         1 0BL       0.046700
     32 H021       -14.0870   -21.9770    -4.4740 hc         1 0BL       0.074700
     33 H031       -14.4970   -18.9670    -4.9530 h1         1 0BL       0.094700
     34 H071       -11.7000   -21.7450    -2.3970 ha         1 0BL       0.119000
     35 H081       -11.7680   -21.1540     0.0330 ha         1 0BL       0.117000
     36 H091       -13.6630   -19.8070     0.9460 ha         1 0BL       0.116000
     37 H101       -15.4990   -19.0360    -0.5850 ha         1 0BL       0.129000
     38 H141       -18.9720   -21.6610    -5.0050 h1         1 0BL       0.070200
     39 H142       -18.0170   -21.8570    -6.4900 h1         1 0BL       0.070200
     40 H171       -21.0550   -18.5790    -8.7140 ha         1 0BL       0.154000
     41 H241       -20.1020   -22.7160    -6.7500 ha         1 0BL       0.114500
     42 H251       -20.6330   -24.6590    -8.1560 ha         1 0BL       0.112500
     43 H261       -21.1260   -24.3670   -10.5800 ha         1 0BL       0.112000
     44 H271       -21.0630   -22.0900   -11.5890 ha         1 0BL       0.112500
     45 H281       -20.4810   -20.1310   -10.2110 ha         1 0BL       0.114500
     46 H131       -17.2160   -20.4070    -4.0480 hn         1 0BL       0.337500
     47 H212       -19.7200   -15.9540    -5.2140 hn         1 0BL       0.464000
     48 H221       -21.1270   -14.8770    -7.9250 hn         1 0BL       0.369400
     49 H211       -20.6870   -14.7120    -5.8860 hn         1 0BL       0.464000
@<TRIPOS>BOND
     1     1     2 1   
     2     1    29 1   
     3     1    30 1   
     4     1    31 1   
     5     2     3 1   
     6     2     5 1   
     7     2    32 1   
     8     3    10 1   
     9     3    26 1   
    10     3    33 1   
    11     4     5 ar  
    12     4     9 ar  
    13     4    26 1   
    14     5     6 ar  
    15     6     7 ar  
    16     6    34 1   
    17     7     8 ar  
    18     7    35 1   
    19     8     9 ar  
    20     8    36 1   
    21     9    37 1   
    22    10    23 1   
    23    10    27 2   
    24    11    12 1   
    25    11    23 1   
    26    11    38 1   
    27    11    39 1   
    28    12    13 2   
    29    12    28 1   
    30    13    14 1   
    31    13    17 1   
    32    14    15 2   
    33    14    40 1   
    34    15    16 1   
    35    15    28 1   
    36    16    24 1   
    37    16    25 2   
    38    17    18 ar  
    39    17    22 ar  
    40    18    19 ar  
    41    18    41 1   
    42    19    20 ar  
    43    19    42 1   
    44    20    21 ar  
    45    20    43 1   
    46    21    22 ar  
    47    21    44 1   
    48    22    45 1   
    49    23    46 1   
    50    24    47 1   
    51    24    49 1   
    52    25    48 1   
@<TRIPOS>SUBSTRUCTURE
     1 0BL         1 TEMP              0 ****  ****    0 ROOT
