@<TRIPOS>MOLECULE
0BL
   49    52     1     0     0
SMALL
abcg2


@<TRIPOS>ATOM
      1 C01        -12.6190   -20.3980    -5.3330 c3         1 0BL      -0.081100
      2 C02        -13.8210   -20.7700    -4.4700 c5         1 0BL      -0.017400
      3 C03        -14.9890   -19.7440    -4.5690 c5         1 0BL       0.072300
      4 C05        -14.5510   -20.0310    -2.3470 ca         1 0BL       0.114100
      5 C06        -13.5650   -20.7730    -2.9830 ca         1 0BL      -0.160300
      6 C07        -12.5770   -21.3860    -2.2320 ca         1 0BL      -0.056000
      7 C08        -12.5960   -21.2420    -0.8420 ca         1 0BL      -0.141000
      8 C09        -13.5980   -20.4960    -0.2250 ca         1 0BL      -0.080000
      9 C10        -14.5990   -19.8730    -0.9740 ca         1 0BL      -0.131000
     10 C11        -16.1180   -20.2330    -5.4560 c          1 0BL       0.593100
     11 C14        -18.4340   -21.0220    -5.5570 c3         1 0BL       0.178300
     12 C15        -19.1590   -19.9320    -6.2990 cc         1 0BL      -0.207300
     13 C16        -19.8940   -20.0230    -7.4620 cd         1 0BL      -0.054000
     14 C17        -20.3890   -18.7520    -7.8780 cd         1 0BL      -0.063000
     15 C18        -20.0480   -17.7270    -7.0410 cc         1 0BL      -0.272900
     16 C20        -20.3990   -16.3030    -7.1900 ce         1 0BL       0.684800
     17 C23        -20.1390   -21.2640    -8.2220 ca         1 0BL      -0.015000
     18 C24        -20.4550   -22.4670    -7.5810 ca         1 0BL      -0.098500
     19 C25        -20.6880   -23.6240    -8.3160 ca         1 0BL      -0.111000
     20 C26        -20.6130   -23.6000    -9.7040 ca         1 0BL      -0.107000
     21 C27        -20.3080   -22.4070   -10.3540 ca         1 0BL      -0.111000
     22 C28        -20.0730   -21.2520    -9.6210 ca         1 0BL      -0.098500
     23 N13        -17.2670   -20.5430    -4.8380 ns         1 0BL      -0.503900
     24 N21        -20.3400   -15.5560    -6.0390 nv         1 0BL      -1.083200
     25 N22        -20.6790   -15.8500    -8.3620 n2         1 0BL      -0.815100
     26 O04        -15.4560   -19.4860    -3.2200 os         1 0BL      -0.353100
     27 O12        -15.9370   -20.3400    -6.6680 o          1 0BL      -0.588100
     28 S19        -19.0840   -18.3080    -5.7220 ss         1 0BL       0.220000
     29 H013       -11.8180   -21.1270    -5.2040 hc         1 0BL       0.046700
     30 H011       -12.8960   -20.3790    -6.3880 hc         1 0BL       0.046700
     31 H012       -12.2390   -19.4130    -5.0550 hc         1 0BL       0.046700
     32 H021       -14.1810   -21.7570    -4.7760 hc         1 0BL       0.074700
     33 H031       -14.6310   -18.7980    -4.9820 h1         1 0BL       0.094700
     34 H071       -11.8000   -21.9680    -2.7120 ha         1 0BL       0.119000
     35 H081       -11.8280   -21.7120    -0.2410 ha         1 0BL       0.117000
     36 H091       -13.6030   -20.3910     0.8530 ha         1 0BL       0.116000
     37 H101       -15.3780   -19.2870    -0.5040 ha         1 0BL       0.129000
     38 H141       -19.0890   -21.4920    -4.8230 h1         1 0BL       0.070200
     39 H142       -18.1310   -21.7900    -6.2690 h1         1 0BL       0.070200
     40 H171       -20.9950   -18.6050    -8.7600 ha         1 0BL       0.154000
     41 H241       -20.5470   -22.4950    -6.5040 ha         1 0BL       0.114500
     42 H251       -20.9360   -24.5440    -7.8010 ha         1 0BL       0.112500
     43 H261       -20.7960   -24.5020   -10.2760 ha         1 0BL       0.112000
     44 H271       -20.2470   -22.3780   -11.4350 ha         1 0BL       0.112500
     45 H281       -19.8250   -20.3310   -10.1340 ha         1 0BL       0.114500
     46 H131       -17.3160   -20.4100    -3.8400 hn         1 0BL       0.337500
     47 H212       -20.5150   -16.0150    -5.1580 hn         1 0BL       0.464000
     48 H221       -20.9510   -14.8690    -8.3120 hn         1 0BL       0.369400
     49 H211       -20.6820   -14.6080    -6.0900 hn         1 0BL       0.464000
@<TRIPOS>BOND
     1     1     2 1   
     2     1    29 1   
     3     1    30 1   
     4     1    31 1   
     5     2     3 1   
     6     2     5 1   
     7     2    32 1   
     8     3    10 1   
     9     3    26 1   
    10     3    33 1   
    11     4     5 ar  
    12     4     9 ar  
    13     4    26 1   
    14     5     6 ar  
    15     6     7 ar  
    16     6    34 1   
    17     7     8 ar  
    18     7    35 1   
    19     8     9 ar  
    20     8    36 1   
    21     9    37 1   
    22    10    23 1   
    23    10    27 2   
    24    11    12 1   
    25    11    23 1   
    26    11    38 1   
    27    11    39 1   
    28    12    13 2   
    29    12    28 1   
    30    13    14 1   
    31    13    17 1   
    32    14    15 2   
    33    14    40 1   
    34    15    16 1   
    35    15    28 1   
    36    16    24 1   
    37    16    25 2   
    38    17    18 ar  
    39    17    22 ar  
    40    18    19 ar  
    41    18    41 1   
    42    19    20 ar  
    43    19    42 1   
    44    20    21 ar  
    45    20    43 1   
    46    21    22 ar  
    47    21    44 1   
    48    22    45 1   
    49    23    46 1   
    50    24    47 1   
    51    24    49 1   
    52    25    48 1   
@<TRIPOS>SUBSTRUCTURE
     1 0BL         1 TEMP              0 ****  ****    0 ROOT
