@<TRIPOS>MOLECULE
0BM
   67    69     1     0     0
SMALL
bcc


@<TRIPOS>ATOM
      1 S10          3.3050     2.1560     0.9380 s6         1 0BM       1.232900
      2 O11          2.8030     1.6330     2.2030 o          1 0BM      -0.607800
      3 O12          2.8930     3.4860     0.5120 o          1 0BM      -0.607800
      4 C13          5.0770     2.0800     0.9900 c3         1 0BM      -0.239300
      5 N9           2.9380     1.1410    -0.3070 n7         1 0BM      -0.844100
      6 C8           2.8110    -0.2810    -0.0790 c3         1 0BM       0.161500
      7 C15          1.3380    -0.6750     0.0180 c          1 0BM       0.660100
      8 O16          0.4950    -0.0600    -0.6220 o          1 0BM      -0.604100
      9 C7           3.4840    -1.0460    -1.2330 c3         1 0BM      -0.029100
     10 C6           4.9530    -0.7400    -1.2750 ca         1 0BM      -0.082300
     11 C1           5.4540     0.2560    -2.1080 ca         1 0BM      -0.123500
     12 C5           5.8320    -1.4030    -0.4210 ca         1 0BM      -0.123500
     13 C2           6.8030     0.5860    -2.0870 ca         1 0BM      -0.129000
     14 C4           7.1800    -1.0740    -0.3930 ca         1 0BM      -0.129000
     15 C3           7.6690    -0.0740    -1.2250 ca         1 0BM      -0.126000
     16 N17          1.0330    -1.7380     0.7680 n          1 0BM      -0.453800
     17 C21         -0.3460    -2.1750     0.8860 c5         1 0BM       0.027700
     18 C22         -1.2430    -1.0600     1.4090 c          1 0BM       0.664100
     19 O23         -0.8510    -0.2540     2.2370 o          1 0BM      -0.579100
     20 C20         -0.2770    -3.3290     1.8990 c5         1 0BM      -0.087400
     21 C19          1.1580    -3.8270     1.7850 c5         1 0BM      -0.093400
     22 C18          1.9480    -2.5450     1.5690 c5         1 0BM       0.103000
     23 N24         -2.4990    -1.0970     0.9500 ns         1 0BM      -0.569900
     24 C25         -3.5350    -0.2050     1.4290 c3         1 0BM       0.110000
     25 C26         -4.8450    -0.4270     0.6880 c6         1 0BM      -0.079700
     26 C27         -4.7500    -0.1060    -0.8000 c6         1 0BM      -0.082900
     27 C28         -6.0930    -0.2620    -1.4990 c6         1 0BM       0.216800
     28 N29         -7.1050     0.5520    -0.8520 nh         1 0BM      -0.755600
     29 C30         -7.2630     0.2460     0.5630 c6         1 0BM       0.216800
     30 C31         -5.9500     0.4220     1.3080 c6         1 0BM      -0.082900
     31 C32         -8.1790     0.9680    -1.6090 c2         1 0BM       0.794100
     32 N33         -9.0940     1.7520    -0.9330 nv         1 0BM      -0.949800
     33 N34         -8.2860     0.6150    -2.8370 n2         1 0BM      -0.892100
     34 H113         5.3920     1.0570     1.1910 h1         1 0BM       0.102700
     35 H213         5.4770     2.4040     0.0330 h1         1 0BM       0.102700
     36 H313         5.4170     2.7340     1.7900 h1         1 0BM       0.102700
     37 HN9          2.2560     1.5380    -0.9470 hn         1 0BM       0.461800
     38 H8           3.3280    -0.5310     0.8490 h1         1 0BM       0.074700
     39 H17          3.3210    -2.1190    -1.1040 hc         1 0BM       0.061200
     40 H27          3.0010    -0.7640    -2.1710 hc         1 0BM       0.061200
     41 H1           4.7820     0.7810    -2.7760 ha         1 0BM       0.130500
     42 H5           5.4590    -2.1860     0.2310 ha         1 0BM       0.130500
     43 H2           7.1770     1.3640    -2.7400 ha         1 0BM       0.133000
     44 H4           7.8480    -1.5970     0.2780 ha         1 0BM       0.133000
     45 H3           8.7190     0.1860    -1.2040 ha         1 0BM       0.133000
     46 H21         -0.7080    -2.5360    -0.0830 h1         1 0BM       0.065700
     47 H120        -0.4610    -2.9580     2.9100 hc         1 0BM       0.064200
     48 H220        -1.0200    -4.0960     1.6860 hc         1 0BM       0.064200
     49 H119         1.4920    -4.3720     2.6660 hc         1 0BM       0.057200
     50 H219         1.2690    -4.4820     0.9180 hc         1 0BM       0.057200
     51 H118         2.8880    -2.7330     1.0520 h1         1 0BM       0.056700
     52 H218         2.1750    -2.0500     2.5180 h1         1 0BM       0.056700
     53 HN24        -2.7490    -1.8070     0.2800 hn         1 0BM       0.312500
     54 H125        -3.6930    -0.3620     2.5010 h1         1 0BM       0.054700
     55 H225        -3.2140     0.8330     1.3030 h1         1 0BM       0.054700
     56 H26         -5.1310    -1.4820     0.7990 hc         1 0BM       0.045700
     57 H127        -4.3940     0.9210    -0.9270 hc         1 0BM       0.052450
     58 H227        -4.0280    -0.7550    -1.3030 hc         1 0BM       0.052450
     59 H128        -6.0080     0.0440    -2.5380 h1         1 0BM       0.048200
     60 H228        -6.3890    -1.3210    -1.5010 h1         1 0BM       0.048200
     61 H130        -8.0230     0.8800     1.0120 h1         1 0BM       0.048200
     62 H230        -7.6100    -0.7910     0.6860 h1         1 0BM       0.048200
     63 H131        -6.1010     0.1460     2.3550 hc         1 0BM       0.052450
     64 H231        -5.6610     1.4780     1.2900 hc         1 0BM       0.052450
     65 H133        -8.7150     2.3910    -0.2510 hn         1 0BM       0.395800
     66 H233        -9.7630     2.2120    -1.5300 hn         1 0BM       0.395800
     67 H134        -9.0590     1.0980    -3.2800 hn         1 0BM       0.377400
@<TRIPOS>BOND
     1     1     2 2   
     2     1     3 2   
     3     1     4 1   
     4     1     5 1   
     5     4    34 1   
     6     4    35 1   
     7     4    36 1   
     8     5     6 1   
     9     5    37 1   
    10     6     7 1   
    11     6     9 1   
    12     6    38 1   
    13     7     8 2   
    14     7    16 1   
    15     9    10 1   
    16     9    39 1   
    17     9    40 1   
    18    10    11 ar  
    19    10    12 ar  
    20    11    13 ar  
    21    11    41 1   
    22    12    14 ar  
    23    12    42 1   
    24    13    15 ar  
    25    13    43 1   
    26    14    15 ar  
    27    14    44 1   
    28    15    45 1   
    29    16    17 1   
    30    16    22 1   
    31    17    18 1   
    32    17    20 1   
    33    17    46 1   
    34    18    19 2   
    35    18    23 1   
    36    20    21 1   
    37    20    47 1   
    38    20    48 1   
    39    21    22 1   
    40    21    49 1   
    41    21    50 1   
    42    22    51 1   
    43    22    52 1   
    44    23    24 1   
    45    23    53 1   
    46    24    25 1   
    47    24    54 1   
    48    24    55 1   
    49    25    26 1   
    50    25    30 1   
    51    25    56 1   
    52    26    27 1   
    53    26    57 1   
    54    26    58 1   
    55    27    28 1   
    56    27    59 1   
    57    27    60 1   
    58    28    29 1   
    59    28    31 1   
    60    29    30 1   
    61    29    61 1   
    62    29    62 1   
    63    30    63 1   
    64    30    64 1   
    65    31    32 1   
    66    31    33 2   
    67    32    65 1   
    68    32    66 1   
    69    33    67 1   
@<TRIPOS>SUBSTRUCTURE
     1 0BM         1 TEMP              0 ****  ****    0 ROOT
