@<TRIPOS>MOLECULE
0BM
   67    69     1     0     0
SMALL
No Charge or Current Charge


@<TRIPOS>ATOM
      1 S10          2.0830     2.4100    -0.0170 s6         1 0BM       1.202100
      2 O11          1.1330     2.0750     1.0420 o          1 0BM      -0.537000
      3 O12          1.8530     3.5510    -0.9040 o          1 0BM      -0.537000
      4 C13          3.7340     2.5220     0.6440 c3         1 0BM      -0.350100
      5 N9           2.1970     1.0850    -1.0080 n7         1 0BM      -0.899300
      6 C8           2.3190    -0.2810    -0.4040 c3         1 0BM       0.161500
      7 C15          0.9340    -0.8990     0.0160 c          1 0BM       0.593100
      8 O16         -0.0910    -0.5900    -0.5870 o          1 0BM      -0.604100
      9 C7           3.0470    -1.2100    -1.4070 c3         1 0BM      -0.029100
     10 C6           4.5240    -0.8580    -1.5620 ca         1 0BM      -0.082300
     11 C1           4.9440     0.0270    -2.5740 ca         1 0BM      -0.105500
     12 C5           5.4800    -1.4090    -0.6860 ca         1 0BM      -0.105500
     13 C2           6.3040     0.3580    -2.7090 ca         1 0BM      -0.111000
     14 C4           6.8400    -1.0780    -0.8210 ca         1 0BM      -0.111000
     15 C3           7.2520    -0.1950    -1.8320 ca         1 0BM      -0.108000
     16 N17          0.8840    -1.8310     1.0810 n          1 0BM      -0.386800
     17 C21         -0.3900    -2.4610     1.5410 c5         1 0BM       0.027700
     18 C22         -1.5300    -1.4740     1.9540 c          1 0BM       0.597100
     19 O23         -1.4110    -0.3190     2.3450 o          1 0BM      -0.579100
     20 C20          0.0810    -3.2170     2.8220 c5         1 0BM      -0.087400
     21 C19          1.5330    -3.6080     2.4590 c5         1 0BM      -0.093400
     22 C18          2.0660    -2.2930     1.8410 c5         1 0BM       0.103000
     23 N24         -2.7490    -2.1110     1.8300 ns         1 0BM      -0.502900
     24 C25         -4.0490    -1.4880     2.0950 c3         1 0BM       0.110000
     25 C26         -4.7610    -0.9850     0.8060 c6         1 0BM      -0.079700
     26 C27         -3.9600     0.1130     0.0590 c6         1 0BM      -0.082900
     27 C28         -4.7150     0.6180    -1.1950 c6         1 0BM       0.216800
     28 N29         -6.0890     1.0930    -0.8680 nh         1 0BM      -0.755600
     29 C30         -6.8930     0.0700    -0.1480 c6         1 0BM       0.216800
     30 C31         -6.1760    -0.4410     1.1260 c6         1 0BM      -0.082900
     31 C32         -6.7270     1.8660    -1.7650 c2         1 0BM       0.794100
     32 N33         -7.2550     2.9300    -1.2050 nv         1 0BM      -1.060200
     33 N34         -6.7250     1.6450    -2.9950 n2         1 0BM      -0.892100
     34 H113         3.9170     1.6340     1.2540 h1         1 0BM       0.102700
     35 H213         4.4220     2.5690    -0.2060 h1         1 0BM       0.102700
     36 H313         3.7830     3.4330     1.2480 h1         1 0BM       0.102700
     37 HN9          1.2910     1.1410    -1.4750 hn         1 0BM       0.517000
     38 H8           2.9410    -0.2370     0.4980 h1         1 0BM       0.074700
     39 H17          2.9550    -2.2510    -1.0750 hc         1 0BM       0.061200
     40 H27          2.5370    -1.1660    -2.3780 hc         1 0BM       0.061200
     41 H1           4.2150     0.4660    -3.2510 ha         1 0BM       0.112500
     42 H5           5.1720    -2.0930     0.1010 ha         1 0BM       0.112500
     43 H2           6.6210     1.0450    -3.4910 ha         1 0BM       0.115000
     44 H4           7.5730    -1.5070    -0.1410 ha         1 0BM       0.115000
     45 H3           8.3050     0.0620    -1.9360 ha         1 0BM       0.115000
     46 H21         -0.7620    -3.1560     0.7750 h1         1 0BM       0.065700
     47 H120         0.0680    -2.5640     3.7040 hc         1 0BM       0.064200
     48 H220        -0.5470    -4.0850     3.0520 hc         1 0BM       0.064200
     49 H119         2.1180    -3.9300     3.3280 hc         1 0BM       0.057200
     50 H219         1.5530    -4.4250     1.7280 hc         1 0BM       0.057200
     51 H118         2.9450    -2.4790     1.2110 h1         1 0BM       0.056700
     52 H218         2.3380    -1.5630     2.6160 h1         1 0BM       0.056700
     53 HN24        -2.7340    -3.0720     1.5080 hn         1 0BM       0.312500
     54 H125        -4.6890    -2.2330     2.5860 h1         1 0BM       0.054700
     55 H225        -3.9220    -0.6490     2.7920 h1         1 0BM       0.054700
     56 H26         -4.8640    -1.8570     0.1450 hc         1 0BM       0.045700
     57 H127        -3.7670     0.9600     0.7320 hc         1 0BM       0.052450
     58 H227        -2.9790    -0.2700    -0.2500 hc         1 0BM       0.052450
     59 H128        -4.1310     1.4390    -1.6380 h1         1 0BM       0.048200
     60 H228        -4.7610    -0.1860    -1.9450 h1         1 0BM       0.048200
     61 H130        -7.8630     0.4950     0.1520 h1         1 0BM       0.048200
     62 H230        -7.1090    -0.7770    -0.8170 h1         1 0BM       0.048200
     63 H131        -6.7860    -1.2240     1.5960 hc         1 0BM       0.052450
     64 H231        -6.1060     0.3790     1.8540 hc         1 0BM       0.052450
     65 H133        -6.9550     2.9590    -0.2420 hn         1 0BM       0.451000
     66 H233        -7.0570     3.7790    -1.7140 hn         1 0BM       0.451000
     67 H134        -7.2760     2.3920    -3.4290 hn         1 0BM       0.377400
@<TRIPOS>BOND
     1     1     2 2   
     2     1     3 2   
     3     1     4 1   
     4     1     5 1   
     5     4    34 1   
     6     4    35 1   
     7     4    36 1   
     8     5     6 1   
     9     5    37 1   
    10     6     7 1   
    11     6     9 1   
    12     6    38 1   
    13     7     8 2   
    14     7    16 1   
    15     9    10 1   
    16     9    39 1   
    17     9    40 1   
    18    10    11 ar  
    19    10    12 ar  
    20    11    13 ar  
    21    11    41 1   
    22    12    14 ar  
    23    12    42 1   
    24    13    15 ar  
    25    13    43 1   
    26    14    15 ar  
    27    14    44 1   
    28    15    45 1   
    29    16    17 1   
    30    16    22 1   
    31    17    18 1   
    32    17    20 1   
    33    17    46 1   
    34    18    19 2   
    35    18    23 1   
    36    20    21 1   
    37    20    47 1   
    38    20    48 1   
    39    21    22 1   
    40    21    49 1   
    41    21    50 1   
    42    22    51 1   
    43    22    52 1   
    44    23    24 1   
    45    23    53 1   
    46    24    25 1   
    47    24    54 1   
    48    24    55 1   
    49    25    26 1   
    50    25    30 1   
    51    25    56 1   
    52    26    27 1   
    53    26    57 1   
    54    26    58 1   
    55    27    28 1   
    56    27    59 1   
    57    27    60 1   
    58    28    29 1   
    59    28    31 1   
    60    29    30 1   
    61    29    61 1   
    62    29    62 1   
    63    30    63 1   
    64    30    64 1   
    65    31    32 1   
    66    31    33 2   
    67    32    65 1   
    68    32    66 1   
    69    33    67 1   
@<TRIPOS>SUBSTRUCTURE
     1 0BM         1 TEMP              0 ****  ****    0 ROOT
