@<TRIPOS>MOLECULE
0BN
   27    27     1     0     0
SMALL
bcc


@<TRIPOS>ATOM
      1 N           17.2840   -13.4630    20.4270 n8         1 0BN      -0.859800
      2 CA          16.2300   -13.2010    21.4020 c3         1 0BN       0.021500
      3 C           16.0370   -14.4280    22.3280 c          1 0BN       0.926600
      4 O           16.0930   -14.2160    23.5560 o          1 0BN      -0.827300
      5 N2          10.7450   -10.5690    25.0360 nv         1 0BN      -0.925800
      6 N3           9.3340   -12.0670    24.0270 n2         1 0BN      -0.881100
      7 C3          13.7850   -12.5520    21.5230 ca         1 0BN      -0.014300
      8 C4          12.8590   -13.5120    21.9240 ca         1 0BN      -0.121000
      9 C5          11.8050   -13.1850    22.7620 ca         1 0BN      -0.109500
     10 C6          11.6490   -11.8840    23.2340 ca         1 0BN      -0.225900
     11 C7          12.5780   -10.9200    22.8440 ca         1 0BN      -0.109500
     12 C8          13.6230   -11.2520    21.9960 ca         1 0BN      -0.121000
     13 C9          14.9370   -12.9070    20.6300 c3         1 0BN      -0.023100
     14 C10         10.4980   -11.5440    24.1150 ce         1 0BN       0.676800
     15 OXT         15.8320   -15.5200    21.7640 o          1 0BN      -0.827300
     16 H           17.4700   -12.6110    19.9100 hn         1 0BN       0.308300
     17 H1          16.4490   -12.3280    22.0350 h1         1 0BN       0.004700
     18 H3          11.6800   -10.4770    25.3960 hn         1 0BN       0.406800
     19 H4          10.0210   -10.4130    25.7210 hn         1 0BN       0.406800
     20 H5           9.2800   -12.6890    23.2300 hn         1 0BN       0.386400
     21 H6          12.9680   -14.5340    21.5800 ha         1 0BN       0.139000
     22 H7          11.1100   -13.9600    23.0630 ha         1 0BN       0.121500
     23 H8          12.4750    -9.8960    23.1800 ha         1 0BN       0.121500
     24 H9          14.3220   -10.4820    21.6900 ha         1 0BN       0.139000
     25 H10         15.1240   -12.0800    19.9370 hc         1 0BN       0.039700
     26 H11         14.6920   -13.7800    20.0230 hc         1 0BN       0.039700
     27 H2          18.1480   -13.6750    20.9100 hn         1 0BN       0.308300
@<TRIPOS>BOND
     1     1     2 1   
     2     1    16 1   
     3     1    27 1   
     4     2     3 1   
     5     2    13 1   
     6     2    17 1   
     7     3     4 1   
     8     3    15 1   
     9     5    14 1   
    10     5    18 1   
    11     5    19 1   
    12     6    14 2   
    13     6    20 1   
    14     7     8 ar  
    15     7    12 ar  
    16     7    13 1   
    17     8     9 ar  
    18     8    21 1   
    19     9    10 ar  
    20     9    22 1   
    21    10    11 ar  
    22    10    14 1   
    23    11    12 ar  
    24    11    23 1   
    25    12    24 1   
    26    13    25 1   
    27    13    26 1   
@<TRIPOS>SUBSTRUCTURE
     1 0BN         1 TEMP              0 ****  ****    0 ROOT
