@<TRIPOS>MOLECULE
0BO
   80    84     1     0     0
SMALL
bcc


@<TRIPOS>ATOM
      1 C10          9.1840    14.9040    26.6040 c6         1 0BO      -0.072400
      2 C15         12.3660     8.2890    23.0110 ca         1 0BO      -0.131800
      3 C17         13.5950     6.5130    24.0170 ca         1 0BO      -0.151000
      4 C20         12.4920     9.0050    24.2050 ca         1 0BO       0.077100
      5 C24         10.3380    15.8060    19.8310 c3         1 0BO       0.073700
      6 C14         11.6230     9.1400    22.1320 cc         1 0BO      -0.096200
      7 C18         13.7060     7.2560    25.2020 ca         1 0BO      -0.098000
      8 C19         13.1540     8.5210    25.3200 ca         1 0BO      -0.128000
      9 C25          9.8430    15.2030    18.5170 c3         1 0BO      -0.082400
     10 C02         10.6420    14.4170    21.8590 c          1 0BO       0.655100
     11 C03          9.8760    13.7000    22.9740 c3         1 0BO       0.036700
     12 C04          9.8080    14.6120    24.2010 c3         1 0BO      -0.086400
     13 C05          8.8920    14.1110    25.3190 c6         1 0BO      -0.060700
     14 C06          7.4000    14.2140    24.9420 c6         1 0BO      -0.072400
     15 C07          6.8060    15.5390    25.4050 c6         1 0BO      -0.073400
     16 C08          6.7980    15.6240    26.9370 c6         1 0BO      -0.074400
     17 C09          7.9920    14.8780    27.5520 c6         1 0BO      -0.073400
     18 C13         11.3640    10.2640    22.8370 cd         1 0BO      -0.058100
     19 C16         12.9290     7.0150    22.9150 ca         1 0BO      -0.066000
     20 C26         10.2360    13.7380    18.3250 c6         1 0BO      -0.140700
     21 C27         11.7470    13.5260    18.2910 c6         1 0BO      -0.074400
     22 C28         12.0700    12.0840    17.9420 c6         1 0BO      -0.093400
     23 C29         11.5550    11.7660    16.5550 c6         1 0BO       0.116000
     24 C31          9.5360    13.1650    17.0990 c          1 0BO       0.712500
     25 C33          9.8910    17.2760    20.0000 c3         1 0BO       0.047100
     26 C35         10.4750    18.1350    18.8840 c          1 0BO       0.677100
     27 C37         12.4720    19.2800    18.1160 cx         1 0BO       0.047700
     28 C38         13.9270    18.9880    17.9520 cx         1 0BO      -0.134900
     29 C39         12.9610    18.6110    16.8710 cx         1 0BO      -0.134900
     30 N11         10.5330    12.4620    23.3110 ns         1 0BO      -0.542900
     31 N23          9.8550    15.0480    20.9660 ns         1 0BO      -0.579900
     32 N30         10.1880    12.2260    16.3910 ns         1 0BO      -0.575900
     33 N36         11.7490    18.5110    19.0750 ns         1 0BO      -0.538900
     34 O01         11.8600    14.4430    21.8440 o          1 0BO      -0.589100
     35 O21         11.8820    10.2030    24.0940 os         1 0BO      -0.178200
     36 O22         10.1400    11.5210    21.2960 o          1 0BO      -0.603100
     37 O32          8.4010    13.5110    16.7920 o          1 0BO      -0.655500
     38 O34         10.3230    17.8030    21.2270 oh         1 0BO      -0.595800
     39 O40          9.8310    18.4050    17.8830 o          1 0BO      -0.588100
     40 H1          10.0790    14.5020    27.0860 hc         1 0BO       0.040700
     41 H2           9.4170    15.9450    26.3530 hc         1 0BO       0.040700
     42 H4          11.4280    15.7830    19.8720 h1         1 0BO       0.089700
     43 H5          11.3230     8.9420    21.1160 ha         1 0BO       0.179000
     44 H6          14.2350     6.8310    26.0440 ha         1 0BO       0.136000
     45 H7          13.2360     9.0960    26.2330 ha         1 0BO       0.150000
     46 H8          10.2450    15.7840    17.6850 hc         1 0BO       0.072700
     47 H9           8.7560    15.3040    18.4710 hc         1 0BO       0.072700
     48 H10          8.8610    13.4800    22.6310 h1         1 0BO       0.074700
     49 H11         10.8240    14.7510    24.5860 hc         1 0BO       0.056700
     50 H12          9.4660    15.6010    23.8800 hc         1 0BO       0.056700
     51 H13          9.1210    13.0590    25.5170 hc         1 0BO       0.051700
     52 H14          7.2650    14.0910    23.8640 hc         1 0BO       0.040700
     53 H15          6.8440    13.3930    25.4030 hc         1 0BO       0.040700
     54 H16          7.3940    16.3630    24.9870 hc         1 0BO       0.039950
     55 H17          5.7950    15.6660    25.0130 hc         1 0BO       0.039950
     56 H18          6.8160    16.6720    27.2450 hc         1 0BO       0.039700
     57 H19          5.8660    15.2070    27.3270 hc         1 0BO       0.039700
     58 H20          7.7230    13.8380    27.7550 hc         1 0BO       0.039950
     59 H21          8.2570    15.3160    28.5160 hc         1 0BO       0.039950
     60 H22         12.8470     6.4370    22.0030 ha         1 0BO       0.141000
     61 H23          9.8400    13.1560    19.1680 hc         1 0BO       0.088700
     62 H24         12.1820    13.7800    19.2570 hc         1 0BO       0.052700
     63 H25         12.2020    14.1980    17.5550 hc         1 0BO       0.052700
     64 H26         11.6140    11.4160    18.6780 hc         1 0BO       0.058200
     65 H27         13.1460    11.9040    17.9720 hc         1 0BO       0.058200
     66 H28         11.5810    10.6920    16.3660 h1         1 0BO       0.036200
     67 H29         12.1970    12.2400    15.8060 h1         1 0BO       0.036200
     68 H30          8.7970    17.3220    19.9040 h1         1 0BO       0.066700
     69 H31         12.1640    20.3180    18.0300 h1         1 0BO       0.088700
     70 H32         14.3490    18.1900    18.5510 hc         1 0BO       0.077200
     71 H33         14.5920    19.8250    17.7890 hc         1 0BO       0.077200
     72 H34         12.7300    17.5610    16.7460 hc         1 0BO       0.077200
     73 H35         12.9560    19.1870    15.9540 hc         1 0BO       0.077200
     74 H36         11.0260    12.4030    24.1890 hn         1 0BO       0.341500
     75 H37          8.8590    14.8840    21.0120 hn         1 0BO       0.318500
     76 H38          9.6900    11.8770    15.5850 hn         1 0BO       0.312500
     77 H39         12.1750    18.3340    19.9720 hn         1 0BO       0.336500
     78 H40         10.0060    17.2290    21.9330 ho         1 0BO       0.417000
     79 C12         10.6310    11.4690    22.4160 c          1 0BO       0.713300
     80 H3          14.0410     5.5290    23.9700 ha         1 0BO       0.136000
@<TRIPOS>BOND
     1     1    13 1   
     2     1    17 1   
     3     1    40 1   
     4     1    41 1   
     5     2     4 ar  
     6     2     6 1   
     7     2    19 ar  
     8     3     7 ar  
     9     3    19 ar  
    10     3    80 1   
    11     4     8 ar  
    12     4    35 1   
    13     5     9 1   
    14     5    25 1   
    15     5    31 1   
    16     5    42 1   
    17     6    18 2   
    18     6    43 1   
    19     7     8 ar  
    20     7    44 1   
    21     8    45 1   
    22     9    20 1   
    23     9    46 1   
    24     9    47 1   
    25    10    11 1   
    26    10    31 1   
    27    10    34 2   
    28    11    12 1   
    29    11    30 1   
    30    11    48 1   
    31    12    13 1   
    32    12    49 1   
    33    12    50 1   
    34    13    14 1   
    35    13    51 1   
    36    14    15 1   
    37    14    52 1   
    38    14    53 1   
    39    15    16 1   
    40    15    54 1   
    41    15    55 1   
    42    16    17 1   
    43    16    56 1   
    44    16    57 1   
    45    17    58 1   
    46    17    59 1   
    47    18    35 1   
    48    18    79 1   
    49    19    60 1   
    50    20    21 1   
    51    20    24 1   
    52    20    61 1   
    53    21    22 1   
    54    21    62 1   
    55    21    63 1   
    56    22    23 1   
    57    22    64 1   
    58    22    65 1   
    59    23    32 1   
    60    23    66 1   
    61    23    67 1   
    62    24    32 1   
    63    24    37 2   
    64    25    26 1   
    65    25    38 1   
    66    25    68 1   
    67    26    33 1   
    68    26    39 2   
    69    27    28 1   
    70    27    29 1   
    71    27    33 1   
    72    27    69 1   
    73    28    29 1   
    74    28    70 1   
    75    28    71 1   
    76    29    72 1   
    77    29    73 1   
    78    30    74 1   
    79    30    79 1   
    80    31    75 1   
    81    32    76 1   
    82    33    77 1   
    83    36    79 2   
    84    38    78 1   
@<TRIPOS>SUBSTRUCTURE
     1 0BO         1 TEMP              0 ****  ****    0 ROOT
