@<TRIPOS>MOLECULE
0BO
   80    84     1     0     0
SMALL
No Charge or Current Charge


@<TRIPOS>ATOM
      1 C10          8.6800    14.7420    26.2660 c6         1 0BO      -0.072400
      2 C15         12.5020     8.3250    24.5450 ca         1 0BO      -0.131800
      3 C17         14.3250     6.9330    25.2780 ca         1 0BO      -0.133000
      4 C20         13.3610     9.3960    24.4430 ca         1 0BO       0.077100
      5 C24         10.5140    15.9840    19.7460 c3         1 0BO       0.073700
      6 C14         11.1810     8.7790    24.1570 cc         1 0BO      -0.146200
      7 C18         15.2050     8.0400    25.1720 ca         1 0BO      -0.080000
      8 C19         14.7230     9.2980    24.7470 ca         1 0BO      -0.110000
      9 C25          9.6420    15.6740    18.4970 c3         1 0BO      -0.082400
     10 C02         10.7820    14.2930    21.6200 c          1 0BO       0.588100
     11 C03          9.9950    13.5020    22.7030 c3         1 0BO       0.036700
     12 C04          9.6090    14.4190    23.9010 c3         1 0BO      -0.086400
     13 C05          8.7390    13.7830    25.0340 c6         1 0BO      -0.060700
     14 C06          7.3080    13.3620    24.5570 c6         1 0BO      -0.072400
     15 C07          6.2490    14.4480    24.8630 c6         1 0BO      -0.073400
     16 C08          6.1230    14.7000    26.3930 c6         1 0BO      -0.074400
     17 C09          7.4530    14.4540    27.1620 c6         1 0BO      -0.073400
     18 C13         11.3540    10.1220    23.8440 cd         1 0BO      -0.058100
     19 C16         12.9540     7.0660    24.9630 ca         1 0BO      -0.048000
     20 C26          9.5230    14.1620    18.0980 c6         1 0BO      -0.140700
     21 C27         10.9180    13.5380    17.8030 c6         1 0BO      -0.074400
     22 C28         10.7840    12.2570    16.9590 c6         1 0BO      -0.093400
     23 C29         10.1150    12.5830    15.6090 c6         1 0BO       0.116000
     24 C31          8.4990    14.0100    16.9390 c          1 0BO       0.570000
     25 C33         10.6020    17.5050    20.0800 c3         1 0BO       0.070300
     26 C35         11.3450    18.3030    18.9620 c          1 0BO       0.610100
     27 C37         13.5780    19.2060    18.3080 cx         1 0BO       0.047700
     28 C38         15.0580    18.9700    18.4770 cx         1 0BO      -0.134900
     29 C39         14.3310    18.3860    17.2900 cx         1 0BO      -0.134900
     30 N11         10.7910    12.3390    23.1550 ns         1 0BO      -0.475900
     31 N23         10.0300    15.2060    20.9030 ns         1 0BO      -0.512900
     32 N30          8.9150    13.4150    15.7700 ns         1 0BO      -0.508900
     33 N36         12.6870    18.5110    19.1950 ns         1 0BO      -0.471900
     34 O01         11.9770    14.1300    21.4090 o          1 0BO      -0.589100
     35 O21         12.6710    10.4890    24.0190 os         1 0BO      -0.178200
     36 O22          9.1280    10.7700    23.2210 o          1 0BO      -0.603100
     37 O32          7.3450    14.3920    17.0440 o          1 0BO      -0.580000
     38 O34         11.2180    17.6840    21.3850 oh         1 0BO      -0.658000
     39 O40         10.7800    18.7560    17.9740 o          1 0BO      -0.588100
     40 H1           9.6040    14.6480    26.8530 hc         1 0BO       0.040700
     41 H2           8.6360    15.7890    25.9340 hc         1 0BO       0.040700
     42 H4          11.5370    15.6560    19.5130 h1         1 0BO       0.089700
     43 H5          10.2510     8.2160    24.1130 ha         1 0BO       0.229000
     44 H6          16.2580     7.9210    25.4180 ha         1 0BO       0.118000
     45 H7          15.3810    10.1590    24.6590 ha         1 0BO       0.132000
     46 H8          10.0360    16.2290    17.6380 hc         1 0BO       0.072700
     47 H9           8.6400    16.0830    18.6800 hc         1 0BO       0.072700
     48 H10          9.0850    13.1380    22.2110 h1         1 0BO       0.074700
     49 H11         10.5410    14.7990    24.3380 hc         1 0BO       0.056700
     50 H12          9.0850    15.3010    23.5120 hc         1 0BO       0.056700
     51 H13          9.2610    12.8710    25.3550 hc         1 0BO       0.051700
     52 H14          7.2950    13.1260    23.4850 hc         1 0BO       0.040700
     53 H15          7.0160    12.4320    25.0650 hc         1 0BO       0.040700
     54 H16          6.5290    15.3810    24.3540 hc         1 0BO       0.039950
     55 H17          5.2730    14.1550    24.4520 hc         1 0BO       0.039950
     56 H18          5.7830    15.7320    26.5570 hc         1 0BO       0.039700
     57 H19          5.3420    14.0520    26.8140 hc         1 0BO       0.039700
     58 H20          7.4950    13.4120    27.5090 hc         1 0BO       0.039950
     59 H21          7.4840    15.0810    28.0640 hc         1 0BO       0.039950
     60 H22         12.2730     6.2210    25.0430 ha         1 0BO       0.123000
     61 H23          9.0600    13.6480    18.9510 hc         1 0BO       0.088700
     62 H24         11.4420    13.3130    18.7420 hc         1 0BO       0.052700
     63 H25         11.5480    14.2560    17.2580 hc         1 0BO       0.052700
     64 H26         10.1840    11.5140    17.5030 hc         1 0BO       0.058200
     65 H27         11.7700    11.8040    16.7890 hc         1 0BO       0.058200
     66 H28          9.8420    11.6530    15.0900 h1         1 0BO       0.036200
     67 H29         10.8230    13.1300    14.9720 h1         1 0BO       0.036200
     68 H30          9.5790    17.9020    20.1110 h1         1 0BO       0.066700
     69 H31         13.2440    20.2060    18.0220 h1         1 0BO       0.088700
     70 H32         15.3850    18.2870    19.2580 hc         1 0BO       0.077200
     71 H33         15.7260    19.8100    18.3000 hc         1 0BO       0.077200
     72 H34         14.1640    17.3110    17.2750 hc         1 0BO       0.077200
     73 H35         14.5090    18.8330    16.3150 hc         1 0BO       0.077200
     74 H36         11.7900    12.4570    23.2830 hn         1 0BO       0.341500
     75 H37          9.0430    15.2590    21.1340 hn         1 0BO       0.318500
     76 H38          8.2210    13.3830    15.0330 hn         1 0BO       0.312500
     77 H39         13.0270    18.1560    20.0820 hn         1 0BO       0.336500
     78 H40         10.8490    16.9830    21.9660 ho         1 0BO       0.456000
     79 C12         10.3030    11.0730    23.3850 c          1 0BO       0.646300
     80 H3          14.7100     5.9700    25.6070 ha         1 0BO       0.118000
@<TRIPOS>BOND
     1     1    13 1   
     2     1    17 1   
     3     1    40 1   
     4     1    41 1   
     5     2     4 ar  
     6     2     6 1   
     7     2    19 ar  
     8     3     7 ar  
     9     3    19 ar  
    10     3    80 1   
    11     4     8 ar  
    12     4    35 1   
    13     5     9 1   
    14     5    25 1   
    15     5    31 1   
    16     5    42 1   
    17     6    18 2   
    18     6    43 1   
    19     7     8 ar  
    20     7    44 1   
    21     8    45 1   
    22     9    20 1   
    23     9    46 1   
    24     9    47 1   
    25    10    11 1   
    26    10    31 1   
    27    10    34 2   
    28    11    12 1   
    29    11    30 1   
    30    11    48 1   
    31    12    13 1   
    32    12    49 1   
    33    12    50 1   
    34    13    14 1   
    35    13    51 1   
    36    14    15 1   
    37    14    52 1   
    38    14    53 1   
    39    15    16 1   
    40    15    54 1   
    41    15    55 1   
    42    16    17 1   
    43    16    56 1   
    44    16    57 1   
    45    17    58 1   
    46    17    59 1   
    47    18    35 1   
    48    18    79 1   
    49    19    60 1   
    50    20    21 1   
    51    20    24 1   
    52    20    61 1   
    53    21    22 1   
    54    21    62 1   
    55    21    63 1   
    56    22    23 1   
    57    22    64 1   
    58    22    65 1   
    59    23    32 1   
    60    23    66 1   
    61    23    67 1   
    62    24    32 1   
    63    24    37 2   
    64    25    26 1   
    65    25    38 1   
    66    25    68 1   
    67    26    33 1   
    68    26    39 2   
    69    27    28 1   
    70    27    29 1   
    71    27    33 1   
    72    27    69 1   
    73    28    29 1   
    74    28    70 1   
    75    28    71 1   
    76    29    72 1   
    77    29    73 1   
    78    30    74 1   
    79    30    79 1   
    80    31    75 1   
    81    32    76 1   
    82    33    77 1   
    83    36    79 2   
    84    38    78 1   
@<TRIPOS>SUBSTRUCTURE
     1 0BO         1 TEMP              0 ****  ****    0 ROOT
