@<TRIPOS>MOLECULE
0BP
   20    21     1     0     0
SMALL
abcg2


@<TRIPOS>ATOM
      1 N1           1.3690     1.1490     0.0150 nb         1 0BP      -0.676000
      2 C2           0.7430    -0.0250     0.0180 cp         1 0BP       0.291000
      3 C3           1.4370    -1.2340     0.0220 ca         1 0BP      -0.120000
      4 C4           2.8220    -1.2070     0.0230 ca         1 0BP      -0.082500
      5 C12         -1.4340     1.2140     0.0140 ca         1 0BP      -0.120000
      6 C11         -2.8190     1.1860     0.0150 ca         1 0BP      -0.082500
      7 C10         -3.4680    -0.0390     0.0200 ca         1 0BP      -0.158000
      8 C9          -2.6900    -1.1880     0.0230 ca         1 0BP       0.336900
      9 N8          -1.3660    -1.1700     0.0220 nb         1 0BP      -0.676000
     10 C7          -0.7400     0.0050     0.0180 cp         1 0BP       0.291000
     11 C5           3.4710     0.0190     0.0190 ca         1 0BP      -0.158000
     12 C6           2.6930     1.1670     0.0150 ca         1 0BP       0.336900
     13 H1           0.8970    -2.1700     0.0260 ha         1 0BP       0.146500
     14 H2           3.3870    -2.1300     0.0260 ha         1 0BP       0.120000
     15 H4          -3.3830     2.1090     0.0110 ha         1 0BP       0.120000
     16 H5          -4.5470    -0.1080     0.0220 ha         1 0BP       0.123000
     17 H6          -3.1590    -2.1660     0.0260 h4         1 0BP       0.018100
     18 H7           4.5500     0.0870     0.0190 ha         1 0BP       0.123000
     19 H8           3.1620     2.1460     0.0120 h4         1 0BP       0.018100
     20 H3          -0.8930     2.1490     0.0090 ha         1 0BP       0.146500
@<TRIPOS>BOND
     1     1     2 ar  
     2     1    12 ar  
     3     2     3 ar  
     4     2    10 1   
     5     3     4 ar  
     6     3    13 1   
     7     4    11 ar  
     8     4    14 1   
     9     5     6 ar  
    10     5    10 ar  
    11     5    20 1   
    12     6     7 ar  
    13     6    15 1   
    14     7     8 ar  
    15     7    16 1   
    16     8     9 ar  
    17     8    17 1   
    18     9    10 ar  
    19    11    12 ar  
    20    11    18 1   
    21    12    19 1   
@<TRIPOS>SUBSTRUCTURE
     1 0BP         1 TEMP              0 ****  ****    0 ROOT
