@<TRIPOS>MOLECULE
0BP
   20    21     1     0     0
SMALL
No Charge or Current Charge


@<TRIPOS>ATOM
      1 N1           1.4240     1.1710     0.0150 nb         1 0BP      -0.676000
      2 C2           0.7640    -0.0220     0.0190 cp         1 0BP       0.291000
      3 C3           1.4950    -1.2430     0.0230 ca         1 0BP      -0.120000
      4 C4           2.9000    -1.2300     0.0230 ca         1 0BP      -0.082500
      5 C12         -1.4920     1.2230     0.0140 ca         1 0BP      -0.120000
      6 C11         -2.8970     1.2090     0.0140 ca         1 0BP      -0.082500
      7 C10         -3.5460    -0.0340     0.0190 ca         1 0BP      -0.158000
      8 C9          -2.7740    -1.2050     0.0230 ca         1 0BP       0.336900
      9 N8          -1.4200    -1.1920     0.0230 nb         1 0BP      -0.676000
     10 C7          -0.7610     0.0010     0.0190 cp         1 0BP       0.291000
     11 C5           3.5490     0.0130     0.0190 ca         1 0BP      -0.158000
     12 C6           2.7770     1.1850     0.0150 ca         1 0BP       0.336900
     13 H1           0.9710    -2.1950     0.0260 ha         1 0BP       0.146500
     14 H2           3.4680    -2.1580     0.0260 ha         1 0BP       0.120000
     15 H4          -3.4650     2.1380     0.0110 ha         1 0BP       0.120000
     16 H5          -4.6310    -0.0960     0.0190 ha         1 0BP       0.123000
     17 H6          -3.2500    -2.1850     0.0270 h4         1 0BP       0.018100
     18 H7           4.6340     0.0760     0.0180 ha         1 0BP       0.123000
     19 H8           3.2530     2.1650     0.0110 h4         1 0BP       0.018100
     20 H3          -0.9680     2.1740     0.0110 ha         1 0BP       0.146500
@<TRIPOS>BOND
     1     1     2 ar  
     2     1    12 ar  
     3     2     3 ar  
     4     2    10 1   
     5     3     4 ar  
     6     3    13 1   
     7     4    11 ar  
     8     4    14 1   
     9     5     6 ar  
    10     5    10 ar  
    11     5    20 1   
    12     6     7 ar  
    13     6    15 1   
    14     7     8 ar  
    15     7    16 1   
    16     8     9 ar  
    17     8    17 1   
    18     9    10 ar  
    19    11    12 ar  
    20    11    18 1   
    21    12    19 1   
@<TRIPOS>SUBSTRUCTURE
     1 0BP         1 TEMP              0 ****  ****    0 ROOT
