@<TRIPOS>MOLECULE
0BQ
   22    24     1     0     0
SMALL
No Charge or Current Charge


@<TRIPOS>ATOM
      1 N3          17.0710     4.8030     2.2470 ns         1 0BQ      -0.369400
      2 C6          18.8140     5.2420     1.1030 cc         1 0BQ       0.328600
      3 C13         23.4840     6.3430    -2.4870 ca         1 0BQ      -0.082000
      4 C15         21.2860     5.4880    -3.1710 ca         1 0BQ      -0.039000
      5 O1          17.7660     5.3490     4.4060 o          1 0BQ      -0.550000
      6 C2          17.9250     5.2340     3.2070 c          1 0BQ       0.566000
      7 N5          17.5640     4.7910     0.9660 nd         1 0BQ      -0.416300
      8 N7          19.0100     5.5010     2.4540 ns         1 0BQ      -0.543900
      9 C9          19.8010     5.4320     0.0440 cc         1 0BQ       0.385500
     10 N10         21.0870     5.9150     0.3220 na         1 0BQ      -0.309600
     11 C11         21.7520     5.9760    -0.8640 ca         1 0BQ      -0.072200
     12 C12         23.0610     6.3880    -1.1420 ca         1 0BQ      -0.119000
     13 C14         22.5990     5.8940    -3.4980 ca         1 0BQ      -0.134000
     14 C16         20.8880     5.5410    -1.8270 ca         1 0BQ       0.062400
     15 N17         19.6560     5.1940    -1.2820 nd         1 0BQ      -0.519100
     16 H1          16.1250     4.5130     2.5000 hn         1 0BQ       0.496000
     17 H3          20.5990     5.1420    -3.9390 ha         1 0BQ       0.134000
     18 H4          19.8590     5.8540     2.8760 hn         1 0BQ       0.472000
     19 H5          21.4510     6.1690     1.2300 hn         1 0BQ       0.357000
     20 H6          23.7270     6.7290    -0.3530 ha         1 0BQ       0.119000
     21 H7          22.9320     5.8620    -4.5330 ha         1 0BQ       0.118000
     22 H2          24.4940     6.6540    -2.7480 ha         1 0BQ       0.116000
@<TRIPOS>BOND
     1     1     6 1   
     2     1     7 1   
     3     1    16 1   
     4     2     7 2   
     5     2     8 1   
     6     2     9 1   
     7     3    12 ar  
     8     3    13 ar  
     9     3    22 1   
    10     4    13 ar  
    11     4    14 ar  
    12     4    17 1   
    13     5     6 2   
    14     6     8 1   
    15     8    18 1   
    16     9    10 1   
    17     9    15 2   
    18    10    11 1   
    19    10    19 1   
    20    11    12 ar  
    21    11    14 ar  
    22    12    20 1   
    23    13    21 1   
    24    14    15 1   
@<TRIPOS>SUBSTRUCTURE
     1 0BQ         1 TEMP              0 ****  ****    0 ROOT
