@<TRIPOS>MOLECULE
0BQ
   22    24     1     0     0
SMALL
abcg2


@<TRIPOS>ATOM
      1 N3          17.0790     4.8430     2.0910 ns         1 0BQ      -0.369400
      2 C6          18.9010     5.2860     1.1670 cc         1 0BQ       0.328600
      3 C13         23.4080     6.3320    -2.5180 ca         1 0BQ      -0.082000
      4 C15         21.2240     5.4370    -3.0980 ca         1 0BQ      -0.039000
      5 O1          17.6190     5.2140     4.3300 o          1 0BQ      -0.550000
      6 C2          17.8790     5.1770     3.1430 c          1 0BQ       0.566000
      7 N5          17.6950     4.9100     0.8960 nd         1 0BQ      -0.416300
      8 N7          19.0690     5.4640     2.5100 ns         1 0BQ      -0.543900
      9 C9          19.9110     5.4810     0.1420 cc         1 0BQ       0.385500
     10 N10         21.1540     5.9740     0.3840 na         1 0BQ      -0.309600
     11 C11         21.8060     6.0190    -0.8170 ca         1 0BQ      -0.072200
     12 C12         23.0850     6.4300    -1.1780 ca         1 0BQ      -0.119000
     13 C14         22.4910     5.8440    -3.4650 ca         1 0BQ      -0.134000
     14 C16         20.8750     5.5290    -1.7490 ca         1 0BQ       0.062400
     15 N17         19.7060     5.2030    -1.1170 nd         1 0BQ      -0.519100
     16 H1          16.1100     4.5720     2.1460 hn         1 0BQ       0.496000
     17 H3          20.5180     5.0630    -3.8290 ha         1 0BQ       0.134000
     18 H4          19.9060     5.7330     3.0060 hn         1 0BQ       0.472000
     19 H5          21.5430     6.2650     1.2680 hn         1 0BQ       0.357000
     20 H6          23.7920     6.8060    -0.4500 ha         1 0BQ       0.119000
     21 H7          22.7890     5.7880    -4.5040 ha         1 0BQ       0.118000
     22 H2          24.3910     6.6420    -2.8490 ha         1 0BQ       0.116000
@<TRIPOS>BOND
     1     1     6 1   
     2     1     7 1   
     3     1    16 1   
     4     2     7 2   
     5     2     8 1   
     6     2     9 1   
     7     3    12 ar  
     8     3    13 ar  
     9     3    22 1   
    10     4    13 ar  
    11     4    14 ar  
    12     4    17 1   
    13     5     6 2   
    14     6     8 1   
    15     8    18 1   
    16     9    10 1   
    17     9    15 2   
    18    10    11 1   
    19    10    19 1   
    20    11    12 ar  
    21    11    14 ar  
    22    12    20 1   
    23    13    21 1   
    24    14    15 1   
@<TRIPOS>SUBSTRUCTURE
     1 0BQ         1 TEMP              0 ****  ****    0 ROOT
