@<TRIPOS>MOLECULE
0BS
   47    50     1     0     0
SMALL
No Charge or Current Charge


@<TRIPOS>ATOM
      1 C02        -17.1680   -17.3770    -6.7720 ce         1 0BS       0.696800
      2 C04        -17.7540   -18.7000    -6.7340 cc         1 0BS      -0.329900
      3 C05        -18.3610   -19.4060    -7.7460 cd         1 0BS      -0.089000
      4 C06        -18.8640   -20.6950    -7.3830 cd         1 0BS      -0.057000
      5 C07        -18.6550   -20.9590    -6.0390 cc         1 0BS      -0.221300
      6 C08        -18.9460   -22.2140    -5.2500 c3         1 0BS       0.164300
      7 C10        -18.0940   -22.2220    -2.8810 c          1 0BS       0.594100
      8 C12        -16.8450   -22.4570    -2.0280 c3         1 0BS      -0.109100
      9 C13        -16.1060   -21.1400    -1.8050 ca         1 0BS      -0.096300
     10 C14        -16.3800   -20.3540    -0.6620 ca         1 0BS      -0.085000
     11 C15        -15.6920   -19.1450    -0.5070 ca         1 0BS       0.053100
     12 C16        -14.7790   -18.7140    -1.4280 ca         1 0BS       0.061100
     13 C18        -14.8530   -17.2260     0.2060 c5         1 0BS       0.369600
     14 C20        -14.4850   -19.4610    -2.5750 ca         1 0BS      -0.097000
     15 C21        -15.1580   -20.6880    -2.7590 ca         1 0BS      -0.113000
     16 C23        -19.6180   -21.5430    -8.3430 ca         1 0BS      -0.020000
     17 C24        -20.6330   -22.4370    -7.9280 ca         1 0BS      -0.100500
     18 C25        -21.3350   -23.2190    -8.8620 ca         1 0BS      -0.109500
     19 C26        -21.0400   -23.1190   -10.2300 ca         1 0BS      -0.106000
     20 C27        -20.0490   -22.2260   -10.6620 ca         1 0BS      -0.109500
     21 C28        -19.3500   -21.4410    -9.7280 ca         1 0BS      -0.100500
     22 N01        -16.7860   -16.8700    -7.9490 nv         1 0BS      -1.034200
     23 N03        -17.1370   -16.6170    -5.7610 n2         1 0BS      -0.853100
     24 N09        -17.9360   -22.4790    -4.2240 ns         1 0BS      -0.508900
     25 O11        -19.1410   -21.7990    -2.4130 o          1 0BS      -0.590100
     26 O17        -14.2360   -17.5150    -1.1000 os         1 0BS      -0.345100
     27 O19        -15.8430   -18.2710     0.5200 os         1 0BS      -0.346100
     28 S22        -17.8370   -19.6130    -5.2390 ss         1 0BS       0.255000
     29 H051       -18.4710   -18.9940    -8.7440 ha         1 0BS       0.141000
     30 H082       -19.9390   -22.1360    -4.7870 h1         1 0BS       0.079700
     31 H081       -18.9570   -23.0770    -5.9280 h1         1 0BS       0.079700
     32 H121       -17.1500   -22.8800    -1.0640 hc         1 0BS       0.077200
     33 H122       -16.1750   -23.1580    -2.5380 hc         1 0BS       0.077200
     34 H141       -17.1090   -20.6700     0.0800 ha         1 0BS       0.147000
     35 H182       -14.0750   -17.2240     0.9780 h2         1 0BS       0.076700
     36 H181       -15.3480   -16.2480     0.1720 h2         1 0BS       0.076700
     37 H201       -13.7590   -19.1030    -3.3010 ha         1 0BS       0.136000
     38 H211       -14.9460   -21.2830    -3.6440 ha         1 0BS       0.114000
     39 H241       -20.9250   -22.5050    -6.8860 ha         1 0BS       0.114500
     40 H251       -22.1160   -23.8970    -8.5250 ha         1 0BS       0.114500
     41 H261       -21.5830   -23.7240   -10.9520 ha         1 0BS       0.115000
     42 H271       -19.8190   -22.1420   -11.7220 ha         1 0BS       0.114500
     43 H281       -18.5740   -20.7740   -10.0920 ha         1 0BS       0.114500
     44 H012       -16.2010   -16.0490    -7.8630 hn         1 0BS       0.472500
     45 H031       -17.6080   -17.1050    -4.9920 hn         1 0BS       0.390400
     46 H091       -17.0310   -22.8210    -4.5220 hn         1 0BS       0.314500
     47 H011       -16.5020   -17.5510    -8.6400 hn         1 0BS       0.472500
@<TRIPOS>BOND
     1     1     2 1   
     2     1    22 1   
     3     1    23 2   
     4     2     3 2   
     5     2    28 1   
     6     3     4 1   
     7     3    29 1   
     8     4     5 2   
     9     4    16 1   
    10     5     6 1   
    11     5    28 1   
    12     6    24 1   
    13     6    30 1   
    14     6    31 1   
    15     7     8 1   
    16     7    24 1   
    17     7    25 2   
    18     8     9 1   
    19     8    32 1   
    20     8    33 1   
    21     9    10 ar  
    22     9    15 ar  
    23    10    11 ar  
    24    10    34 1   
    25    11    12 ar  
    26    11    27 1   
    27    12    14 ar  
    28    12    26 1   
    29    13    26 1   
    30    13    27 1   
    31    13    35 1   
    32    13    36 1   
    33    14    15 ar  
    34    14    37 1   
    35    15    38 1   
    36    16    17 ar  
    37    16    21 ar  
    38    17    18 ar  
    39    17    39 1   
    40    18    19 ar  
    41    18    40 1   
    42    19    20 ar  
    43    19    41 1   
    44    20    21 ar  
    45    20    42 1   
    46    21    43 1   
    47    22    44 1   
    48    22    47 1   
    49    23    45 1   
    50    24    46 1   
@<TRIPOS>SUBSTRUCTURE
     1 0BS         1 TEMP              0 ****  ****    0 ROOT
