@<TRIPOS>MOLECULE
0BS
   47    50     1     0     0
SMALL
abcg2


@<TRIPOS>ATOM
      1 C02        -17.3970   -17.2790    -5.7600 ce         1 0BS       0.696800
      2 C04        -17.9070   -18.6460    -5.9720 cc         1 0BS      -0.329900
      3 C05        -18.4490   -19.1940    -7.1040 cd         1 0BS      -0.089000
      4 C06        -18.8570   -20.5520    -6.9460 cd         1 0BS      -0.057000
      5 C07        -18.5990   -21.0180    -5.6730 cc         1 0BS      -0.221300
      6 C08        -18.8330   -22.3910    -5.1000 c3         1 0BS       0.164300
      7 C10        -18.1850   -22.5950    -2.7260 c          1 0BS       0.594100
      8 C12        -16.9730   -22.6660    -1.8010 c3         1 0BS      -0.109100
      9 C13        -16.1620   -21.3970    -1.9470 ca         1 0BS      -0.096300
     10 C14        -16.6650   -20.1960    -1.4120 ca         1 0BS      -0.085000
     11 C15        -15.9700   -19.0440    -1.6850 ca         1 0BS       0.053100
     12 C16        -14.8110   -19.0420    -2.4500 ca         1 0BS       0.061100
     13 C18        -15.1840   -16.9420    -1.7540 c5         1 0BS       0.369600
     14 C20        -14.2890   -20.2030    -2.9670 ca         1 0BS      -0.097000
     15 C21        -14.9920   -21.3890    -2.7000 ca         1 0BS      -0.113000
     16 C23        -19.4610   -21.3370    -8.0380 ca         1 0BS      -0.020000
     17 C24        -20.5470   -22.1910    -7.8150 ca         1 0BS      -0.100500
     18 C25        -21.1070   -22.9170    -8.8590 ca         1 0BS      -0.109500
     19 C26        -20.5950   -22.8020   -10.1470 ca         1 0BS      -0.106000
     20 C27        -19.5200   -21.9500   -10.3840 ca         1 0BS      -0.109500
     21 C28        -18.9590   -21.2250    -9.3410 ca         1 0BS      -0.100500
     22 N01        -17.1030   -16.5890    -6.9050 nv         1 0BS      -1.034200
     23 N03        -17.2560   -16.7100    -4.6120 n2         1 0BS      -0.853100
     24 N09        -17.8960   -22.7170    -4.0420 ns         1 0BS      -0.508900
     25 O11        -19.3210   -22.3920    -2.3040 o          1 0BS      -0.590100
     26 O17        -14.3590   -17.7570    -2.6040 os         1 0BS      -0.345100
     27 O19        -16.2930   -17.7580    -1.3360 os         1 0BS      -0.346100
     28 S22        -17.8630   -19.8050    -4.6900 ss         1 0BS       0.255000
     29 H051       -18.5860   -18.6420    -8.0230 ha         1 0BS       0.141000
     30 H082       -19.8350   -22.4680    -4.6770 h1         1 0BS       0.079700
     31 H081       -18.7550   -23.1310    -5.8980 h1         1 0BS       0.079700
     32 H121       -17.3450   -22.7870    -0.7850 hc         1 0BS       0.077200
     33 H122       -16.3620   -23.5320    -2.0580 hc         1 0BS       0.077200
     34 H141       -17.5830   -20.1770    -0.8400 ha         1 0BS       0.147000
     35 H182       -14.6080   -16.6370    -0.8760 h2         1 0BS       0.076700
     36 H181       -15.5560   -16.0910    -2.3190 h2         1 0BS       0.076700
     37 H201       -13.3870   -20.2030    -3.5630 ha         1 0BS       0.136000
     38 H211       -14.6170   -22.3200    -3.1040 ha         1 0BS       0.114000
     39 H241       -20.9730   -22.2690    -6.8240 ha         1 0BS       0.114500
     40 H251       -21.9500   -23.5690    -8.6660 ha         1 0BS       0.114500
     41 H261       -21.0320   -23.3670   -10.9610 ha         1 0BS       0.115000
     42 H271       -19.1130   -21.8530   -11.3840 ha         1 0BS       0.114500
     43 H281       -18.1160   -20.5720    -9.5320 ha         1 0BS       0.114500
     44 H012       -16.6390   -15.7020    -6.7790 hn         1 0BS       0.472500
     45 H031       -17.6030   -17.3010    -3.8620 hn         1 0BS       0.390400
     46 H091       -16.9260   -22.8190    -4.3030 hn         1 0BS       0.314500
     47 H011       -16.8310   -17.1060    -7.7250 hn         1 0BS       0.472500
@<TRIPOS>BOND
     1     1     2 1   
     2     1    22 1   
     3     1    23 2   
     4     2     3 2   
     5     2    28 1   
     6     3     4 1   
     7     3    29 1   
     8     4     5 2   
     9     4    16 1   
    10     5     6 1   
    11     5    28 1   
    12     6    24 1   
    13     6    30 1   
    14     6    31 1   
    15     7     8 1   
    16     7    24 1   
    17     7    25 2   
    18     8     9 1   
    19     8    32 1   
    20     8    33 1   
    21     9    10 ar  
    22     9    15 ar  
    23    10    11 ar  
    24    10    34 1   
    25    11    12 ar  
    26    11    27 1   
    27    12    14 ar  
    28    12    26 1   
    29    13    26 1   
    30    13    27 1   
    31    13    35 1   
    32    13    36 1   
    33    14    15 ar  
    34    14    37 1   
    35    15    38 1   
    36    16    17 ar  
    37    16    21 ar  
    38    17    18 ar  
    39    17    39 1   
    40    18    19 ar  
    41    18    40 1   
    42    19    20 ar  
    43    19    41 1   
    44    20    21 ar  
    45    20    42 1   
    46    21    43 1   
    47    22    44 1   
    48    22    47 1   
    49    23    45 1   
    50    24    46 1   
@<TRIPOS>SUBSTRUCTURE
     1 0BS         1 TEMP              0 ****  ****    0 ROOT
