@<TRIPOS>MOLECULE
0BT
   45    48     1     0     0
SMALL
No Charge or Current Charge


@<TRIPOS>ATOM
      1 CAV         -1.0340     1.5800     0.5700 ca         1 0BT      -0.073500
      2 CAW          0.1860     2.1530     0.1680 ca         1 0BT      -0.113000
      3 CAX          0.5710     2.1060    -1.1790 ca         1 0BT       0.189000
      4 I1           2.4590     2.9710    -1.7950 i          1 0BT      -0.430000
      5 CAY         -0.2670     1.5080    -2.1290 ca         1 0BT      -0.113000
      6 CAZ         -1.4880     0.9350    -1.7300 ca         1 0BT      -0.073500
      7 CAU         -1.8710     0.9330    -0.3680 ca         1 0BT      -0.045300
      8 CAB         -3.2040     0.2870     0.1010 c6         1 0BT       0.207300
      9 PAA         -4.4600     1.7660     0.2400 p5         1 0BT       1.252500
     10 OBC         -4.0260     2.7450     1.2870 o          1 0BT      -0.889500
     11 OBA         -4.5730     2.4940    -1.0640 o          1 0BT      -0.889500
     12 OBB         -5.8230     1.2670     0.6110 o          1 0BT      -0.889500
     13 OAH         -3.0490    -0.3820     1.3980 os         1 0BT      -0.384000
     14 OAD         -3.6950    -0.6990    -0.8570 os         1 0BT      -0.384000
     15 CAC         -2.9100    -1.8960    -1.0170 c6         1 0BT       0.130600
     16 CAE         -2.6880    -2.6290     0.3260 c5         1 0BT       0.092300
     17 OAF         -1.4890    -3.4450     0.1920 os         1 0BT      -0.486000
     18 CAG         -2.3870    -1.6800     1.5340 c5         1 0BT       0.156300
     19 CAI         -0.8440    -1.5570     1.4710 c5         1 0BT      -0.166400
     20 CAJ         -0.5370    -3.0440     1.1980 c5         1 0BT       0.324700
     21 N1           0.8530    -3.1580     0.6900 n          1 0BT      -0.301000
     22 C6           1.2110    -2.5680    -0.5260 cc         1 0BT       0.028600
     23 C5           2.5220    -2.5830    -0.9490 cd         1 0BT      -0.299400
     24 CAR          2.9860    -1.9580    -2.2460 c3         1 0BT      -0.011900
     25 C4           3.5610    -3.2380    -0.1170 c          1 0BT       0.592200
     26 O4           4.7440    -3.3060    -0.4090 o          1 0BT      -0.566000
     27 N3           3.0870    -3.7760     1.0370 ns         1 0BT      -0.471500
     28 C2           1.8130    -3.7780     1.5090 c          1 0BT       0.621000
     29 O2           1.5550    -4.2890     2.5870 o          1 0BT      -0.578000
     30 H1          -1.3200     1.6210     1.6190 ha         1 0BT       0.137000
     31 H2           0.8310     2.6300     0.9010 ha         1 0BT       0.097000
     32 H3           0.0260     1.4890    -3.1750 ha         1 0BT       0.097000
     33 H4          -2.1310     0.4900    -2.4860 ha         1 0BT       0.137000
     34 H7          -3.4240    -2.5620    -1.7240 h1         1 0BT       0.022200
     35 H8          -1.9410    -1.6320    -1.4590 h1         1 0BT       0.022200
     36 H9          -3.5550    -3.2720     0.5340 h1         1 0BT       0.085700
     37 H10         -2.7030    -2.1380     2.4820 h1         1 0BT       0.057700
     38 H11         -0.4820    -0.9230     0.6640 hc         1 0BT       0.070700
     39 H12         -0.4070    -1.2040     2.4100 hc         1 0BT       0.070700
     40 H13         -0.6590    -3.6560     2.1010 h2         1 0BT       0.085700
     41 H14          0.3750    -2.1350    -1.0690 h4         1 0BT       0.235000
     42 H15          3.7410    -1.1820    -2.0630 hc         1 0BT       0.042033
     43 H16          3.4290    -2.7080    -2.9120 hc         1 0BT       0.042033
     44 H17          2.1550    -1.4860    -2.7850 hc         1 0BT       0.042033
     45 H18          3.7710    -4.2240     1.6250 hn         1 0BT       0.326500
@<TRIPOS>BOND
     1     1     2 ar  
     2     1     7 ar  
     3     1    30 1   
     4     2     3 ar  
     5     2    31 1   
     6     3     4 1   
     7     3     5 ar  
     8     5     6 ar  
     9     5    32 1   
    10     6     7 ar  
    11     6    33 1   
    12     7     8 1   
    13     8     9 1   
    14     8    13 1   
    15     8    14 1   
    16     9    10 1   
    17     9    11 1   
    18     9    12 1   
    19    13    18 1   
    20    14    15 1   
    21    15    16 1   
    22    15    34 1   
    23    15    35 1   
    24    16    17 1   
    25    16    18 1   
    26    16    36 1   
    27    17    20 1   
    28    18    19 1   
    29    18    37 1   
    30    19    20 1   
    31    19    38 1   
    32    19    39 1   
    33    20    21 1   
    34    20    40 1   
    35    21    22 1   
    36    21    28 1   
    37    22    23 2   
    38    22    41 1   
    39    23    24 1   
    40    23    25 1   
    41    24    42 1   
    42    24    43 1   
    43    24    44 1   
    44    25    26 2   
    45    25    27 1   
    46    27    28 1   
    47    27    45 1   
    48    28    29 2   
@<TRIPOS>SUBSTRUCTURE
     1 0BT         1 TEMP              0 ****  ****    0 ROOT
