@<TRIPOS>MOLECULE
0BT
   45    48     1     0     0
SMALL
bcc


@<TRIPOS>ATOM
      1 CAV         -1.0330     1.6170     0.5720 ca         1 0BT      -0.091500
      2 CAW          0.1040     2.3270     0.2160 ca         1 0BT      -0.131000
      3 CAX          0.4620     2.4040    -1.1220 ca         1 0BT       0.051900
      4 I1           2.2010     3.4540    -1.6780 i          1 0BT      -0.292900
      5 CAY         -0.3120     1.7950    -2.0980 ca         1 0BT      -0.131000
      6 CAZ         -1.4520     1.1000    -1.7200 ca         1 0BT      -0.091500
      7 CAU         -1.8150     0.9690    -0.3820 ca         1 0BT      -0.045300
      8 CAB         -3.0860     0.2590     0.0130 c6         1 0BT       0.318700
      9 PAA         -4.5030     1.5410     0.0610 p5         1 0BT       1.094700
     10 OBC         -4.0350     2.5540     1.1030 o          1 0BT      -0.889500
     11 OBA         -4.5420     2.0640    -1.3730 o          1 0BT      -0.889500
     12 OBB         -5.7260     0.7250     0.4730 o          1 0BT      -0.889500
     13 OAH         -3.0000    -0.2990     1.3090 os         1 0BT      -0.337600
     14 OAD         -3.4550    -0.7160    -0.9260 os         1 0BT      -0.337600
     15 CAC         -2.5750    -1.8140    -0.9990 c6         1 0BT       0.107400
     16 CAE         -2.5400    -2.5280     0.3420 c5         1 0BT       0.069100
     17 OAF         -1.4360    -3.4210     0.4100 os         1 0BT      -0.439600
     18 CAG         -2.3340    -1.5220     1.4820 c5         1 0BT       0.133100
     19 CAI         -0.8110    -1.5050     1.6220 c5         1 0BT      -0.166400
     20 CAJ         -0.4820    -2.9640     1.3470 c5         1 0BT       0.301500
     21 N1           0.8530    -3.1800     0.8050 n          1 0BT      -0.368000
     22 C6           1.1850    -2.6360    -0.4090 cc         1 0BT       0.078600
     23 C5           2.4000    -2.7230    -0.9730 cd         1 0BT      -0.299400
     24 CAR          2.7330    -2.1150    -2.2950 c3         1 0BT      -0.011900
     25 C4           3.4280    -3.4500    -0.2520 c          1 0BT       0.734700
     26 O4           4.5710    -3.6100    -0.6380 o          1 0BT      -0.641500
     27 N3           3.0130    -3.9760     0.9580 ns         1 0BT      -0.605500
     28 C2           1.7780    -3.8840     1.5440 c          1 0BT       0.830500
     29 O2           1.5430    -4.3820     2.6260 o          1 0BT      -0.653500
     30 H1          -1.3000     1.5580     1.6180 ha         1 0BT       0.155000
     31 H2           0.6950     2.8100     0.9820 ha         1 0BT       0.115000
     32 H3          -0.0470     1.8600    -3.1440 ha         1 0BT       0.115000
     33 H4          -2.0530     0.6400    -2.4930 ha         1 0BT       0.155000
     34 H7          -2.9430    -2.4760    -1.7860 h1         1 0BT       0.022200
     35 H8          -1.5670    -1.4960    -1.2910 h1         1 0BT       0.022200
     36 H9          -3.4630    -3.0980     0.4800 h1         1 0BT       0.085700
     37 H10         -2.7480    -1.9460     2.4030 h1         1 0BT       0.057700
     38 H11         -0.3360    -0.8460     0.8950 hc         1 0BT       0.070700
     39 H12         -0.4780    -1.1960     2.6110 hc         1 0BT       0.070700
     40 H13         -0.5420    -3.5610     2.2570 h2         1 0BT       0.085700
     41 H14          0.3850    -2.1210    -0.9200 h4         1 0BT       0.185000
     42 H15          3.4920    -1.3370    -2.1930 hc         1 0BT       0.042033
     43 H16          3.1240    -2.8600    -2.9880 hc         1 0BT       0.042033
     44 H17          1.8530    -1.6630    -2.7500 hc         1 0BT       0.042033
     45 H18          3.7050    -4.4860     1.4930 hn         1 0BT       0.326500
@<TRIPOS>BOND
     1     1     2 ar  
     2     1     7 ar  
     3     1    30 1   
     4     2     3 ar  
     5     2    31 1   
     6     3     4 1   
     7     3     5 ar  
     8     5     6 ar  
     9     5    32 1   
    10     6     7 ar  
    11     6    33 1   
    12     7     8 1   
    13     8     9 1   
    14     8    13 1   
    15     8    14 1   
    16     9    10 1   
    17     9    11 1   
    18     9    12 1   
    19    13    18 1   
    20    14    15 1   
    21    15    16 1   
    22    15    34 1   
    23    15    35 1   
    24    16    17 1   
    25    16    18 1   
    26    16    36 1   
    27    17    20 1   
    28    18    19 1   
    29    18    37 1   
    30    19    20 1   
    31    19    38 1   
    32    19    39 1   
    33    20    21 1   
    34    20    40 1   
    35    21    22 1   
    36    21    28 1   
    37    22    23 2   
    38    22    41 1   
    39    23    24 1   
    40    23    25 1   
    41    24    42 1   
    42    24    43 1   
    43    24    44 1   
    44    25    26 2   
    45    25    27 1   
    46    27    28 1   
    47    27    45 1   
    48    28    29 2   
@<TRIPOS>SUBSTRUCTURE
     1 0BT         1 TEMP              0 ****  ****    0 ROOT
