@<TRIPOS>MOLECULE
0BU
   86    91     1     0     0
SMALL
No Charge or Current Charge


@<TRIPOS>ATOM
      1 OAA         -0.8020     0.2400     0.0130 o          1 0BU      -0.594100
      2 OAB         -5.4530     1.0130    -0.5580 o          1 0BU      -0.614600
      3 OAC          5.9140    -2.4910     0.2360 o          1 0BU      -0.614600
      4 OAD        -13.0530    -2.2490     2.9870 o          1 0BU      -0.719033
      5 OAE        -14.2000    -2.1120     0.7830 o          1 0BU      -0.719033
      6 OAF         14.4490     0.5390    -1.2260 o          1 0BU      -0.719033
      7 OAG         13.7560     2.6480    -0.0980 o          1 0BU      -0.719033
      8 OAH        -12.1940     3.4820     0.6530 o          1 0BU      -0.712367
      9 OAI        -13.0360     2.5240    -1.4830 o          1 0BU      -0.712367
     10 OAJ         13.1450    -3.2240     0.5940 o          1 0BU      -0.712367
     11 OAK         12.2150    -4.0880     2.7350 o          1 0BU      -0.712367
     12 OAL         -7.2480    -2.1030     1.2310 o          1 0BU      -0.709367
     13 OAM         -8.0800    -3.0670    -0.9060 o          1 0BU      -0.709367
     14 OAN          7.2440     0.7650    -1.6970 o          1 0BU      -0.709367
     15 OAO          8.4750     2.9200    -1.7170 o          1 0BU      -0.709367
     16 OAP        -14.1160    -0.1090     2.2610 o          1 0BU      -0.719033
     17 OAQ         13.0810     2.2280    -2.4550 o          1 0BU      -0.719033
     18 OAR        -11.4430     4.4350    -1.5200 o          1 0BU      -0.712367
     19 OAS         13.2860    -1.8430     2.6580 o          1 0BU      -0.712367
     20 OAT         -8.9810    -3.8810     1.2590 o          1 0BU      -0.709367
     21 OAU          7.3720     2.1470     0.3680 o          1 0BU      -0.709367
     22 CAV         -4.1530    -3.1880    -2.5670 ca         1 0BU      -0.119000
     23 CAW          3.2620     1.4090     1.2900 ca         1 0BU      -0.119000
     24 CAX         -2.8100    -2.9960    -2.2120 ca         1 0BU      -0.144000
     25 CAY          2.1030     0.8270     0.7550 ca         1 0BU      -0.144000
     26 CAZ         -5.1280    -2.2590    -2.1730 ca         1 0BU      -0.080000
     27 CBA          4.4930     0.7390     1.2230 ca         1 0BU      -0.080000
     28 CBB         -8.2810     1.5780    -1.4890 ca         1 0BU      -0.142000
     29 CBC          8.5420    -2.1840     1.7150 ca         1 0BU      -0.142000
     30 CBD         -9.3720     2.4330    -1.4370 ca         1 0BU      -0.071500
     31 CBE          9.7920    -2.7230     1.9850 ca         1 0BU      -0.071500
     32 CBF         -3.4080    -0.9380    -1.0700 ca         1 0BU      -0.090500
     33 CBG          3.4040    -1.1100     0.0830 ca         1 0BU      -0.090500
     34 CBH        -10.8680    -1.7850     1.0330 ca         1 0BU       0.041000
     35 CBI         10.7180     1.4320    -0.8450 ca         1 0BU       0.041000
     36 CBJ        -11.8220     0.3470     0.4550 ca         1 0BU       0.022500
     37 CBK         12.0110    -0.2950     0.2200 ca         1 0BU       0.022500
     38 NBL         -1.0390    -1.7450    -1.1510 ns         1 0BU      -0.168000
     39 NBM          1.0340    -1.1040    -0.4140 ns         1 0BU      -0.168000
     40 NBN         -7.1320    -0.4610    -1.0770 ns         1 0BU      -0.166500
     41 NBO          7.0520    -0.5780     0.7930 ns         1 0BU      -0.166500
     42 CBP         -0.3140    -0.7740    -0.4720 c          1 0BU       0.659100
     43 CBQ         -5.7970    -0.0930    -0.9710 c          1 0BU       0.630200
     44 CBR          5.8940    -1.2950     0.5210 c          1 0BU       0.630200
     45 CBS         -2.4220    -1.8710    -1.4660 ca         1 0BU      -0.042000
     46 CBT          2.1640    -0.4450     0.1480 ca         1 0BU      -0.042000
     47 CBU         -4.7700    -1.1240    -1.4090 ca         1 0BU      -0.088100
     48 CBV          4.5840    -0.5310     0.6070 ca         1 0BU      -0.088100
     49 CBW        -11.9460    -0.9020     1.0660 ca         1 0BU      -0.265000
     50 CBX         11.9580     0.8640    -0.5550 ca         1 0BU      -0.265000
     51 CBY         -8.3120     0.3050    -0.9000 ca         1 0BU      -0.024500
     52 CBZ          8.3900    -1.0220     0.9430 ca         1 0BU      -0.024500
     53 CCA        -10.5600     2.0470    -0.7960 ca         1 0BU      -0.208500
     54 CCB         10.9600    -2.1140     1.4990 ca         1 0BU      -0.208500
     55 CCC         -9.6420    -1.4550     0.4100 ca         1 0BU      -0.263500
     56 CCD          9.5040     0.8640    -0.3920 ca         1 0BU      -0.263500
     57 CCE        -10.6260     0.7470    -0.1910 ca         1 0BU       0.002500
     58 CCF         10.8380    -0.9190     0.7130 ca         1 0BU       0.002500
     59 CCG         -9.5020    -0.1590    -0.2310 ca         1 0BU       0.044500
     60 CCH          9.5480    -0.3420     0.4160 ca         1 0BU       0.044500
     61 SCK        -11.9820     3.2780    -0.7880 s6         1 0BU       1.271600
     62 SCL         12.6030    -2.9210     1.9270 s6         1 0BU       1.271600
     63 SCM         -8.3290    -2.7930     0.5150 s6         1 0BU       1.263600
     64 SCN          7.9620     1.7910    -0.9290 s6         1 0BU       1.263600
     65 HAV         -4.4400    -4.0570    -3.1550 ha         1 0BU       0.095000
     66 HAW          3.2050     2.3860     1.7660 ha         1 0BU       0.095000
     67 HAX         -2.0670    -3.7260    -2.5270 ha         1 0BU       0.107000
     68 HAY          1.1730     1.3800     0.8240 ha         1 0BU       0.107000
     69 HAZ         -6.1550    -2.4270    -2.4870 ha         1 0BU       0.144500
     70 HBA          5.3630     1.2120     1.6720 ha         1 0BU       0.144500
     71 HBB         -7.3960     1.9170    -2.0220 ha         1 0BU       0.085500
     72 HBC          7.6730    -2.6810     2.1380 ha         1 0BU       0.085500
     73 HBD         -9.2800     3.4050    -1.9150 ha         1 0BU       0.112500
     74 HBE          9.8370    -3.6240     2.5910 ha         1 0BU       0.112500
     75 HBF         -3.1350    -0.0630    -0.4890 ha         1 0BU       0.143500
     76 HBG          3.4520    -2.0900    -0.3870 ha         1 0BU       0.143500
     77 HBH        -11.0110    -2.7510     1.5090 ha         1 0BU       0.142000
     78 HBI         10.7220     2.3410    -1.4410 ha         1 0BU       0.142000
     79 HBJ        -12.6870     0.9960     0.4940 ha         1 0BU       0.154000
     80 HBK         12.9950    -0.6950     0.4310 ha         1 0BU       0.154000
     81 HNBL        -0.4780    -2.5150    -1.4900 hn         1 0BU       0.133000
     82 HNBM         1.2610    -1.9830    -0.8600 hn         1 0BU       0.133000
     83 HNBN        -7.2910    -1.4320    -1.3210 hn         1 0BU       0.202500
     84 HNBO         6.9230     0.4200     0.9030 hn         1 0BU       0.202500
     85 SCI        -13.5280    -1.4030     1.8820 s6         1 0BU       1.283600
     86 SCJ         13.5080     1.6670    -1.1650 s6         1 0BU       1.283600
@<TRIPOS>BOND
     1     1    42 2   
     2     2    43 2   
     3     3    44 2   
     4     4    85 1   
     5     5    85 1   
     6     6    86 1   
     7     7    86 1   
     8     8    61 1   
     9     9    61 1   
    10    10    62 1   
    11    11    62 1   
    12    12    63 1   
    13    13    63 1   
    14    14    64 1   
    15    15    64 1   
    16    16    85 1   
    17    17    86 1   
    18    18    61 1   
    19    19    62 1   
    20    20    63 1   
    21    21    64 1   
    22    22    24 ar  
    23    22    26 ar  
    24    22    65 1   
    25    23    25 ar  
    26    23    27 ar  
    27    23    66 1   
    28    24    45 ar  
    29    24    67 1   
    30    25    46 ar  
    31    25    68 1   
    32    26    47 ar  
    33    26    69 1   
    34    27    48 ar  
    35    27    70 1   
    36    28    30 ar  
    37    28    51 ar  
    38    28    71 1   
    39    29    31 ar  
    40    29    52 ar  
    41    29    72 1   
    42    30    53 ar  
    43    30    73 1   
    44    31    54 ar  
    45    31    74 1   
    46    32    45 ar  
    47    32    47 ar  
    48    32    75 1   
    49    33    46 ar  
    50    33    48 ar  
    51    33    76 1   
    52    34    49 ar  
    53    34    55 ar  
    54    34    77 1   
    55    35    50 ar  
    56    35    56 ar  
    57    35    78 1   
    58    36    49 ar  
    59    36    57 ar  
    60    36    79 1   
    61    37    50 ar  
    62    37    58 ar  
    63    37    80 1   
    64    38    42 1   
    65    38    45 1   
    66    38    81 1   
    67    39    42 1   
    68    39    46 1   
    69    39    82 1   
    70    40    43 1   
    71    40    51 1   
    72    40    83 1   
    73    41    44 1   
    74    41    52 1   
    75    41    84 1   
    76    43    47 1   
    77    44    48 1   
    78    49    85 1   
    79    50    86 1   
    80    51    59 ar  
    81    52    60 ar  
    82    53    57 ar  
    83    53    61 1   
    84    54    58 ar  
    85    54    62 1   
    86    55    59 ar  
    87    55    63 1   
    88    56    60 ar  
    89    56    64 1   
    90    57    59 ar  
    91    58    60 ar  
@<TRIPOS>SUBSTRUCTURE
     1 0BU         1 TEMP              0 ****  ****    0 ROOT
