@<TRIPOS>MOLECULE
0BU
   86    91     1     0     0
SMALL
bcc


@<TRIPOS>ATOM
      1 OAA         -0.7820    -0.2790    -0.5660 o          1 0BU      -0.594100
      2 OAB         -5.1640     0.6480    -1.1110 o          1 0BU      -0.614600
      3 OAC          5.7780    -1.9970    -0.3000 o          1 0BU      -0.614600
      4 OAD        -11.7700    -0.7040     3.8820 o          1 0BU      -0.719033
      5 OAE        -13.0170    -1.8960     2.1320 o          1 0BU      -0.719033
      6 OAF         13.8410     1.1630    -0.9890 o          1 0BU      -0.719033
      7 OAG         12.8690     3.2270    -0.0550 o          1 0BU      -0.719033
      8 OAH        -11.1330     3.8750     0.3690 o          1 0BU      -0.712367
      9 OAI        -12.4280     2.7130    -1.3740 o          1 0BU      -0.712367
     10 OAJ         12.4980    -3.0010    -0.4330 o          1 0BU      -0.712367
     11 OAK         11.7950    -4.3430     1.5000 o          1 0BU      -0.712367
     12 OAL         -6.5080    -1.8610     1.0200 o          1 0BU      -0.709367
     13 OAM         -7.7310    -3.1510    -0.7100 o          1 0BU      -0.709367
     14 OAN          6.5260     1.6450    -0.7870 o          1 0BU      -0.709367
     15 OAO          7.9150     3.5780    -0.2080 o          1 0BU      -0.709367
     16 OAP        -13.3050     0.5360     2.4070 o          1 0BU      -0.719033
     17 OAQ         12.3070     2.5350    -2.3450 o          1 0BU      -0.719033
     18 OAR        -10.7520     4.3980    -2.0000 o          1 0BU      -0.712367
     19 OAS         12.9290    -2.1910     1.8530 o          1 0BU      -0.712367
     20 OAT         -8.2770    -3.4420     1.6520 o          1 0BU      -0.709367
     21 OAU          7.0100     2.1920     1.5880 o          1 0BU      -0.709367
     22 CAV         -3.9670    -3.5590    -2.9320 ca         1 0BU      -0.137000
     23 CAW          2.6450     1.1460     1.4080 ca         1 0BU      -0.137000
     24 CAX         -2.7200    -3.5140    -2.3330 ca         1 0BU      -0.162000
     25 CAY          1.5840     0.3470     1.0120 ca         1 0BU      -0.162000
     26 CAZ         -4.9120    -2.5790    -2.6670 ca         1 0BU      -0.098000
     27 CBA          3.9600     0.7410     1.2450 ca         1 0BU      -0.098000
     28 CBB         -7.9010     1.3000    -2.1420 ca         1 0BU      -0.160000
     29 CBC          8.1350    -2.2520     1.5010 ca         1 0BU      -0.160000
     30 CBD         -8.8850     2.2760    -2.0000 ca         1 0BU      -0.089500
     31 CBE          9.3910    -2.8560     1.4520 ca         1 0BU      -0.089500
     32 CBF         -3.3480    -1.5030    -1.1750 ca         1 0BU      -0.108500
     33 CBG          3.1650    -1.2920     0.2470 ca         1 0BU      -0.108500
     34 CBH        -10.0400    -1.3190     1.3620 ca         1 0BU       0.023000
     35 CBI         10.0610     1.8330    -0.3190 ca         1 0BU       0.023000
     36 CBJ        -11.0140     0.7370     0.6170 ca         1 0BU       0.004500
     37 CBK         11.4310    -0.0910     0.0610 ca         1 0BU       0.004500
     38 NBL         -1.1360    -2.5150    -0.8490 ns         1 0BU      -0.494100
     39 NBM          0.8390    -1.7740     0.0150 ns         1 0BU      -0.494100
     40 NBN         -6.8670    -0.7600    -1.6390 ns         1 0BU      -0.492600
     41 NBO          6.6040    -0.4930     1.1690 ns         1 0BU      -0.492600
     42 CBP         -0.3900    -1.4280    -0.4780 c          1 0BU       0.793100
     43 CBQ         -5.5570    -0.4490    -1.4690 c          1 0BU       0.697200
     44 CBR          5.6020    -1.0520     0.4510 c          1 0BU       0.697200
     45 CBS         -2.3980    -2.4820    -1.4490 ca         1 0BU       0.050600
     46 CBT          1.8430    -0.8870     0.4150 ca         1 0BU       0.050600
     47 CBU         -4.6000    -1.5530    -1.7810 ca         1 0BU      -0.088100
     48 CBV          4.2260    -0.4990     0.6690 ca         1 0BU      -0.088100
     49 CBW        -11.0630    -0.3600     1.4150 ca         1 0BU      -0.265000
     50 CBX         11.3060     1.1890    -0.3730 ca         1 0BU      -0.265000
     51 CBY         -7.8930     0.1580    -1.3810 ca         1 0BU       0.068100
     52 CBZ          7.9280    -0.9610     1.0840 ca         1 0BU       0.068100
     53 CCA         -9.9030     2.0980    -1.1060 ca         1 0BU      -0.208500
     54 CCB         10.4670    -2.1550     0.9860 ca         1 0BU      -0.208500
     55 CCC         -8.9930    -1.1910     0.4930 ca         1 0BU      -0.263500
     56 CCD          8.9490     1.1920     0.1500 ca         1 0BU      -0.263500
     57 CCE         -9.9470     0.9270    -0.2990 ca         1 0BU       0.002500
     58 CCF         10.3100    -0.8090     0.5530 ca         1 0BU       0.002500
     59 CCG         -8.9110    -0.0620    -0.3980 ca         1 0BU       0.044500
     60 CCH          9.0210    -0.1750     0.5980 ca         1 0BU       0.044500
     61 SCK        -11.1660     3.3830    -1.0180 s6         1 0BU       1.271600
     62 SCL         12.0640    -2.9950     0.9740 s6         1 0BU       1.271600
     63 SCM         -7.7630    -2.5180     0.6330 s6         1 0BU       1.263600
     64 SCN          7.4660     2.2320     0.1750 s6         1 0BU       1.263600
     65 HAV         -4.1950    -4.3590    -3.6240 ha         1 0BU       0.113000
     66 HAW          2.4350     2.1060     1.8610 ha         1 0BU       0.113000
     67 HAX         -1.9860    -4.2780    -2.5570 ha         1 0BU       0.125000
     68 HAY          0.5730     0.6840     1.1790 ha         1 0BU       0.125000
     69 HAZ         -5.8670    -2.6120    -3.1740 ha         1 0BU       0.162500
     70 HBA          4.7490     1.4110     1.5540 ha         1 0BU       0.162500
     71 HBB         -7.1380     1.4330    -2.8960 ha         1 0BU       0.103500
     72 HBC          7.2990    -2.8150     1.8930 ha         1 0BU       0.103500
     73 HBD         -8.8450     3.1580    -2.6220 ha         1 0BU       0.130500
     74 HBE          9.5000    -3.8740     1.7940 ha         1 0BU       0.130500
     75 HBF         -3.1320    -0.7070    -0.4810 ha         1 0BU       0.161500
     76 HBG          3.3720    -2.2490    -0.2160 ha         1 0BU       0.161500
     77 HBH        -10.0760    -2.1710     2.0250 ha         1 0BU       0.160000
     78 HBI          9.9810     2.8590    -0.6490 ha         1 0BU       0.160000
     79 HBJ        -11.8080     1.4620     0.6890 ha         1 0BU       0.172000
     80 HBK         12.4010    -0.5590     0.0200 ha         1 0BU       0.172000
     81 HNBL        -0.6810    -3.4150    -0.8610 hn         1 0BU       0.299500
     82 HNBM         1.1280    -2.7370    -0.0700 hn         1 0BU       0.299500
     83 HNBN        -7.1210    -1.7500    -1.6210 hn         1 0BU       0.369000
     84 HNBO         6.4640     0.3950     1.6400 hn         1 0BU       0.369000
     85 SCI        -12.4120    -0.6240     2.5600 s6         1 0BU       1.283600
     86 SCJ         12.7110     2.1060    -0.9960 s6         1 0BU       1.283600
@<TRIPOS>BOND
     1     1    42 2   
     2     2    43 2   
     3     3    44 2   
     4     4    85 1   
     5     5    85 1   
     6     6    86 1   
     7     7    86 1   
     8     8    61 1   
     9     9    61 1   
    10    10    62 1   
    11    11    62 1   
    12    12    63 1   
    13    13    63 1   
    14    14    64 1   
    15    15    64 1   
    16    16    85 1   
    17    17    86 1   
    18    18    61 1   
    19    19    62 1   
    20    20    63 1   
    21    21    64 1   
    22    22    24 ar  
    23    22    26 ar  
    24    22    65 1   
    25    23    25 ar  
    26    23    27 ar  
    27    23    66 1   
    28    24    45 ar  
    29    24    67 1   
    30    25    46 ar  
    31    25    68 1   
    32    26    47 ar  
    33    26    69 1   
    34    27    48 ar  
    35    27    70 1   
    36    28    30 ar  
    37    28    51 ar  
    38    28    71 1   
    39    29    31 ar  
    40    29    52 ar  
    41    29    72 1   
    42    30    53 ar  
    43    30    73 1   
    44    31    54 ar  
    45    31    74 1   
    46    32    45 ar  
    47    32    47 ar  
    48    32    75 1   
    49    33    46 ar  
    50    33    48 ar  
    51    33    76 1   
    52    34    49 ar  
    53    34    55 ar  
    54    34    77 1   
    55    35    50 ar  
    56    35    56 ar  
    57    35    78 1   
    58    36    49 ar  
    59    36    57 ar  
    60    36    79 1   
    61    37    50 ar  
    62    37    58 ar  
    63    37    80 1   
    64    38    42 1   
    65    38    45 1   
    66    38    81 1   
    67    39    42 1   
    68    39    46 1   
    69    39    82 1   
    70    40    43 1   
    71    40    51 1   
    72    40    83 1   
    73    41    44 1   
    74    41    52 1   
    75    41    84 1   
    76    43    47 1   
    77    44    48 1   
    78    49    85 1   
    79    50    86 1   
    80    51    59 ar  
    81    52    60 ar  
    82    53    57 ar  
    83    53    61 1   
    84    54    58 ar  
    85    54    62 1   
    86    55    59 ar  
    87    55    63 1   
    88    56    60 ar  
    89    56    64 1   
    90    57    59 ar  
    91    58    60 ar  
@<TRIPOS>SUBSTRUCTURE
     1 0BU         1 TEMP              0 ****  ****    0 ROOT
