@<TRIPOS>MOLECULE
0BV
   29    31     1     0     0
SMALL
No Charge or Current Charge


@<TRIPOS>ATOM
      1 OAA          3.1430    -2.1330     1.4150 o          1 0BV      -0.512100
      2 CAB          3.3470    -1.3060     0.5320 c          1 0BV       0.575900
      3 CAL          2.5200    -1.2290    -0.7540 c3         1 0BV      -0.159100
      4 CAM          1.1140    -0.6740    -0.4860 ca         1 0BV      -0.072300
      5 CAO          0.8560     0.7020    -0.2440 ca         1 0BV      -0.025000
      6 CAH          1.9160     1.6440    -0.2410 ca         1 0BV      -0.108000
      7 CAD          1.6740     3.0020    -0.0030 ca         1 0BV      -0.104000
      8 CAF          0.3710     3.4450     0.2380 ca         1 0BV      -0.107000
      9 CAJ         -0.6930     2.5310     0.2410 ca         1 0BV      -0.097000
     10 CAQ         -0.4770     1.1480     0.0030 ca         1 0BV      -0.017000
     11 CAP         -1.5500     0.2040     0.0050 ca         1 0BV      -0.017000
     12 CAI         -2.9040     0.5670     0.2410 ca         1 0BV      -0.100000
     13 CAE         -3.9250    -0.3980     0.2340 ca         1 0BV      -0.104000
     14 CAC         -3.6230    -1.7440    -0.0060 ca         1 0BV      -0.106000
     15 CAG         -2.2960    -2.1250    -0.2410 ca         1 0BV      -0.095000
     16 CAN         -1.2670    -1.1620    -0.2360 ca         1 0BV      -0.037000
     17 CAK          0.0470    -1.5860    -0.4760 ca         1 0BV      -0.084000
     18 H1           4.1640    -0.5570     0.6260 h4         1 0BV      -0.007800
     19 H2           3.0440    -0.6000    -1.4820 hc         1 0BV       0.075200
     20 H3           2.4530    -2.2410    -1.1680 hc         1 0BV       0.075200
     21 H4           2.9430     1.3460    -0.4240 ha         1 0BV       0.110000
     22 H5           2.4990     3.7120    -0.0050 ha         1 0BV       0.115000
     23 H6           0.1820     4.5000     0.4240 ha         1 0BV       0.115000
     24 H7          -1.6770     2.9370     0.4350 ha         1 0BV       0.114000
     25 H8          -3.2040     1.5900     0.4330 ha         1 0BV       0.113000
     26 H9          -4.9550    -0.0990     0.4170 ha         1 0BV       0.114000
     27 H10         -4.4150    -2.4900    -0.0100 ha         1 0BV       0.116000
     28 H11         -2.0670    -3.1720    -0.4270 ha         1 0BV       0.115000
     29 H12          0.2410    -2.6410    -0.6560 ha         1 0BV       0.117000
@<TRIPOS>BOND
     1     1     2 2   
     2     2     3 1   
     3     2    18 1   
     4     3     4 1   
     5     3    19 1   
     6     3    20 1   
     7     4     5 ar  
     8     4    17 ar  
     9     5     6 ar  
    10     5    10 ar  
    11     6     7 ar  
    12     6    21 1   
    13     7     8 ar  
    14     7    22 1   
    15     8     9 ar  
    16     8    23 1   
    17     9    10 ar  
    18     9    24 1   
    19    10    11 ar  
    20    11    12 ar  
    21    11    16 ar  
    22    12    13 ar  
    23    12    25 1   
    24    13    14 ar  
    25    13    26 1   
    26    14    15 ar  
    27    14    27 1   
    28    15    16 ar  
    29    15    28 1   
    30    16    17 ar  
    31    17    29 1   
@<TRIPOS>SUBSTRUCTURE
     1 0BV         1 TEMP              0 ****  ****    0 ROOT
