@<TRIPOS>MOLECULE
0BV
   29    31     1     0     0
SMALL
bcc


@<TRIPOS>ATOM
      1 OAA          3.8320    -2.3890     0.8950 o          1 0BV      -0.512100
      2 CAB          3.2410    -1.3910     0.5720 c          1 0BV       0.575900
      3 CAL          2.5030    -1.2260    -0.7310 c3         1 0BV      -0.159100
      4 CAM          1.1130    -0.6970    -0.4920 ca         1 0BV      -0.072300
      5 CAO          0.8680     0.7060    -0.2650 ca         1 0BV      -0.025000
      6 CAH          1.9160     1.6470    -0.2870 ca         1 0BV      -0.126000
      7 CAD          1.6830     2.9830    -0.0700 ca         1 0BV      -0.122000
      8 CAF          0.3820     3.4300     0.1800 ca         1 0BV      -0.125000
      9 CAJ         -0.6580     2.5320     0.2050 ca         1 0BV      -0.115000
     10 CAQ         -0.4510     1.1580    -0.0140 ca         1 0BV      -0.017000
     11 CAP         -1.5460     0.2080     0.0090 ca         1 0BV      -0.017000
     12 CAI         -2.8830     0.5800     0.2440 ca         1 0BV      -0.118000
     13 CAE         -3.8910    -0.3550     0.2550 ca         1 0BV      -0.122000
     14 CAC         -3.6060    -1.7090     0.0330 ca         1 0BV      -0.124000
     15 CAG         -2.3100    -2.0990    -0.1980 ca         1 0BV      -0.113000
     16 CAN         -1.2660    -1.1560    -0.2140 ca         1 0BV      -0.037000
     17 CAK          0.0770    -1.5710    -0.4570 ca         1 0BV      -0.102000
     18 H1           3.2050    -0.5140     1.2430 h4         1 0BV      -0.007800
     19 H2           3.0830    -0.5450    -1.3620 hc         1 0BV       0.075200
     20 H3           2.4650    -2.1850    -1.2480 hc         1 0BV       0.075200
     21 H4           2.9300     1.3250    -0.4820 ha         1 0BV       0.128000
     22 H5           2.5050     3.6870    -0.0910 ha         1 0BV       0.133000
     23 H6           0.1910     4.4810     0.3510 ha         1 0BV       0.133000
     24 H7          -1.6540     2.9050     0.4020 ha         1 0BV       0.132000
     25 H8          -3.1410     1.6150     0.4210 ha         1 0BV       0.131000
     26 H9          -4.9100    -0.0410     0.4370 ha         1 0BV       0.132000
     27 H10         -4.4020    -2.4400     0.0430 ha         1 0BV       0.134000
     28 H11         -2.0760    -3.1430    -0.3700 ha         1 0BV       0.133000
     29 H12          0.2600    -2.6270    -0.6240 ha         1 0BV       0.135000
@<TRIPOS>BOND
     1     1     2 2   
     2     2     3 1   
     3     2    18 1   
     4     3     4 1   
     5     3    19 1   
     6     3    20 1   
     7     4     5 ar  
     8     4    17 ar  
     9     5     6 ar  
    10     5    10 ar  
    11     6     7 ar  
    12     6    21 1   
    13     7     8 ar  
    14     7    22 1   
    15     8     9 ar  
    16     8    23 1   
    17     9    10 ar  
    18     9    24 1   
    19    10    11 ar  
    20    11    12 ar  
    21    11    16 ar  
    22    12    13 ar  
    23    12    25 1   
    24    13    14 ar  
    25    13    26 1   
    26    14    15 ar  
    27    14    27 1   
    28    15    16 ar  
    29    15    28 1   
    30    16    17 ar  
    31    17    29 1   
@<TRIPOS>SUBSTRUCTURE
     1 0BV         1 TEMP              0 ****  ****    0 ROOT
