@<TRIPOS>MOLECULE
0BW
   53    55     1     0     0
SMALL
No Charge or Current Charge


@<TRIPOS>ATOM
      1 CAO         -1.3360    -2.4530    -1.2850 c6         1 0BW       0.182800
      2 CAM         -0.3930    -3.6930    -1.1370 c6         1 0BW       0.161800
      3 NBA         -0.8900    -4.6840    -0.1340 n3         1 0BW      -0.718600
      4 CAC         -0.0100    -5.8660    -0.0160 c3         1 0BW       0.153100
      5 CAN         -1.1260    -4.0070     1.1780 c6         1 0BW       0.161800
      6 CAP         -2.0890    -2.7800     1.0600 c6         1 0BW       0.182800
      7 NBB         -1.6330    -1.7990     0.0270 nh         1 0BW      -0.801400
      8 CAZ         -2.1460    -0.4810     0.0360 ca         1 0BW       0.222000
      9 CAJ         -3.5330    -0.2630     0.0560 ca         1 0BW      -0.138000
     10 CAI         -4.0540     1.0400     0.0540 ca         1 0BW      -0.070000
     11 CAX         -3.1880     2.1560     0.0330 ca         1 0BW      -0.127600
     12 CAU         -3.7270     3.5710     0.0350 c          1 0BW       0.604700
     13 OAE         -3.0010     4.5580     0.0190 o          1 0BW      -0.481000
     14 OAR         -5.0980     3.6430     0.0560 os         1 0BW      -0.443100
     15 CAA         -5.7110     4.9460     0.0600 c3         1 0BW       0.154900
     16 CAL         -1.7920     1.9350     0.0120 ca         1 0BW      -0.073000
     17 CAY         -1.2650     0.6240     0.0100 ca         1 0BW      -0.032000
     18 NAQ          0.1300     0.3400     0.0100 ns         1 0BW      -0.144000
     19 CAT          1.2610     1.1290    -0.1290 c          1 0BW       0.618700
     20 OAD          1.2160     2.3400    -0.3190 o          1 0BW      -0.574100
     21 CAW          2.5860     0.3900    -0.0370 ca         1 0BW      -0.116600
     22 CAK          3.7950     1.1010    -0.2270 ca         1 0BW      -0.093000
     23 CAH          2.6610    -1.0000     0.2360 ca         1 0BW      -0.129000
     24 CAF          3.9050    -1.6480     0.3100 ca         1 0BW      -0.083000
     25 CAG          5.0940    -0.9270     0.1160 ca         1 0BW      -0.180000
     26 CAV          5.0400     0.4560    -0.1530 ca         1 0BW       0.134100
     27 OAS          6.1740     1.2180    -0.3520 os         1 0BW      -0.337100
     28 CAB          7.4970     0.6550    -0.2980 c3         1 0BW       0.148900
     29 H1          -0.8620    -1.7340    -1.9700 h1         1 0BW       0.048450
     30 H2          -2.2750    -2.7800    -1.7560 h1         1 0BW       0.048450
     31 H3          -0.2870    -4.1700    -2.1220 h1         1 0BW       0.038450
     32 H4           0.6060    -3.3360    -0.8480 h1         1 0BW       0.038450
     33 H6           0.9890    -5.5780     0.3390 h1         1 0BW       0.032033
     34 H7          -0.4310    -6.5930     0.6920 h1         1 0BW       0.032033
     35 H8           0.1010    -6.3650    -0.9880 h1         1 0BW       0.032033
     36 H9          -1.5520    -4.7170     1.9020 h1         1 0BW       0.038450
     37 H10         -0.1710    -3.6580     1.5980 h1         1 0BW       0.038450
     38 H11         -3.0950    -3.1480     0.8090 h1         1 0BW       0.048450
     39 H12         -2.1550    -2.2920     2.0440 h1         1 0BW       0.048450
     40 H13         -4.2140    -1.1100     0.0650 ha         1 0BW       0.119000
     41 H14         -5.1340     1.1720     0.0680 ha         1 0BW       0.131000
     42 H15         -5.4050     5.5200     0.9440 h1         1 0BW       0.048367
     43 H16         -5.4330     5.5130    -0.8380 h1         1 0BW       0.048367
     44 H17         -6.8040     4.8530     0.0780 h1         1 0BW       0.048367
     45 H18         -1.1300     2.7960     0.0080 ha         1 0BW       0.168000
     46 H19          0.3220    -0.6460     0.1320 hn         1 0BW       0.179000
     47 H20          3.7750     2.1680    -0.4370 ha         1 0BW       0.152000
     48 H21          1.7660    -1.5950     0.4000 ha         1 0BW       0.118000
     49 H22          3.9470    -2.7150     0.5210 ha         1 0BW       0.114000
     50 H23          6.0410    -1.4560     0.1800 ha         1 0BW       0.119000
     51 H24          7.6210    -0.1250    -1.0600 h1         1 0BW       0.042367
     52 H25          8.2490     1.4320    -0.4830 h1         1 0BW       0.042367
     53 H26          7.6960     0.2190     0.6890 h1         1 0BW       0.042367
@<TRIPOS>BOND
     1     1     2 1   
     2     1     7 1   
     3     1    29 1   
     4     1    30 1   
     5     2     3 1   
     6     2    31 1   
     7     2    32 1   
     8     3     4 1   
     9     3     5 1   
    10     4    33 1   
    11     4    34 1   
    12     4    35 1   
    13     5     6 1   
    14     5    36 1   
    15     5    37 1   
    16     6     7 1   
    17     6    38 1   
    18     6    39 1   
    19     7     8 1   
    20     8     9 ar  
    21     8    17 ar  
    22     9    10 ar  
    23     9    40 1   
    24    10    11 ar  
    25    10    41 1   
    26    11    12 1   
    27    11    16 ar  
    28    12    13 2   
    29    12    14 1   
    30    14    15 1   
    31    15    42 1   
    32    15    43 1   
    33    15    44 1   
    34    16    17 ar  
    35    16    45 1   
    36    17    18 1   
    37    18    19 1   
    38    18    46 1   
    39    19    20 2   
    40    19    21 1   
    41    21    22 ar  
    42    21    23 ar  
    43    22    26 ar  
    44    22    47 1   
    45    23    24 ar  
    46    23    48 1   
    47    24    25 ar  
    48    24    49 1   
    49    25    26 ar  
    50    25    50 1   
    51    26    27 1   
    52    27    28 1   
    53    28    51 1   
    54    28    52 1   
    55    28    53 1   
@<TRIPOS>SUBSTRUCTURE
     1 0BW         1 TEMP              0 ****  ****    0 ROOT
