@<TRIPOS>MOLECULE
0BW
   53    55     1     0     0
SMALL
bcc


@<TRIPOS>ATOM
      1 CAO         -1.0490    -2.2630    -1.2600 c6         1 0BW       0.182800
      2 CAM         -0.1410    -3.4640    -1.0840 c6         1 0BW       0.161800
      3 NBA         -0.8240    -4.5230    -0.3720 n3         1 0BW      -0.718600
      4 CAC          0.0040    -5.7000    -0.2390 c3         1 0BW       0.153100
      5 CAN         -1.3030    -4.0560     0.9120 c6         1 0BW       0.161800
      6 CAP         -2.2310    -2.8670     0.7410 c6         1 0BW       0.182800
      7 NBB         -1.5170    -1.8070     0.0480 nh         1 0BW      -0.663000
      8 CAZ         -2.1040    -0.5300     0.0500 ca         1 0BW       0.083600
      9 CAJ         -3.4750    -0.3140     0.0470 ca         1 0BW      -0.156000
     10 CAI         -3.9950     0.9710     0.0560 ca         1 0BW      -0.088000
     11 CAX         -3.1340     2.0630     0.0630 ca         1 0BW      -0.127600
     12 CAU         -3.6250     3.4630     0.0680 c          1 0BW       0.653700
     13 OAE         -2.9020     4.4310     0.0480 o          1 0BW      -0.530000
     14 OAR         -4.9460     3.5400     0.0980 os         1 0BW      -0.419900
     15 CAA         -5.5310     4.8420     0.1050 c3         1 0BW       0.131700
     16 CAL         -1.7530     1.8650     0.0860 ca         1 0BW      -0.091000
     17 CAY         -1.2340     0.5800     0.0900 ca         1 0BW       0.060600
     18 NAQ          0.1200     0.2710     0.1990 ns         1 0BW      -0.470100
     19 CAT          1.2000     1.0550    -0.0260 c          1 0BW       0.685700
     20 OAD          1.1300     2.2090    -0.4110 o          1 0BW      -0.574100
     21 CAW          2.5180     0.3840     0.2040 ca         1 0BW      -0.116600
     22 CAK          3.6220     0.9190    -0.4410 ca         1 0BW      -0.111000
     23 CAH          2.6720    -0.7260     1.0380 ca         1 0BW      -0.147000
     24 CAF          3.9280    -1.2860     1.1960 ca         1 0BW      -0.101000
     25 CAG          5.0360    -0.7650     0.5410 ca         1 0BW      -0.198000
     26 CAV          4.8840     0.3480    -0.2840 ca         1 0BW       0.134100
     27 OAS          5.8860     0.9340    -0.9610 os         1 0BW      -0.313900
     28 CAB          7.1910     0.4020    -0.8380 c3         1 0BW       0.125700
     29 H1          -0.4990    -1.4640    -1.7590 h1         1 0BW       0.048450
     30 H2          -1.8980    -2.5270    -1.9060 h1         1 0BW       0.048450
     31 H3           0.1610    -3.8290    -2.0690 h1         1 0BW       0.038450
     32 H4           0.7810    -3.1470    -0.5630 h1         1 0BW       0.038450
     33 H6           0.9230    -5.5210     0.3400 h1         1 0BW       0.032033
     34 H7          -0.5530    -6.4950     0.2580 h1         1 0BW       0.032033
     35 H8           0.2990    -6.0620    -1.2250 h1         1 0BW       0.032033
     36 H9          -1.8500    -4.8630     1.4040 h1         1 0BW       0.038450
     37 H10         -0.4730    -3.7690     1.5820 h1         1 0BW       0.038450
     38 H11         -3.1290    -3.1860     0.1940 h1         1 0BW       0.048450
     39 H12         -2.5450    -2.5070     1.7210 h1         1 0BW       0.048450
     40 H13         -4.1520    -1.1570     0.0270 ha         1 0BW       0.137000
     41 H14         -5.0670     1.1030     0.0430 ha         1 0BW       0.149000
     42 H15         -5.2250     5.4100     0.9820 h1         1 0BW       0.048367
     43 H16         -5.2710     5.3990    -0.7950 h1         1 0BW       0.048367
     44 H17         -6.6050     4.6850     0.1340 h1         1 0BW       0.048367
     45 H18         -1.0950     2.7180     0.1240 ha         1 0BW       0.186000
     46 H19          0.2630    -0.7060     0.4280 hn         1 0BW       0.345500
     47 H20          3.5110     1.7840    -1.0830 ha         1 0BW       0.170000
     48 H21          1.8440    -1.1440     1.5970 ha         1 0BW       0.136000
     49 H22          4.0530    -2.1410     1.8460 ha         1 0BW       0.132000
     50 H23          6.0000    -1.2320     0.6880 ha         1 0BW       0.137000
     51 H24          7.2450    -0.6320    -1.1870 h1         1 0BW       0.042367
     52 H25          7.8340     1.0160    -1.4620 h1         1 0BW       0.042367
     53 H26          7.5530     0.4470     0.1930 h1         1 0BW       0.042367
@<TRIPOS>BOND
     1     1     2 1   
     2     1     7 1   
     3     1    29 1   
     4     1    30 1   
     5     2     3 1   
     6     2    31 1   
     7     2    32 1   
     8     3     4 1   
     9     3     5 1   
    10     4    33 1   
    11     4    34 1   
    12     4    35 1   
    13     5     6 1   
    14     5    36 1   
    15     5    37 1   
    16     6     7 1   
    17     6    38 1   
    18     6    39 1   
    19     7     8 1   
    20     8     9 ar  
    21     8    17 ar  
    22     9    10 ar  
    23     9    40 1   
    24    10    11 ar  
    25    10    41 1   
    26    11    12 1   
    27    11    16 ar  
    28    12    13 2   
    29    12    14 1   
    30    14    15 1   
    31    15    42 1   
    32    15    43 1   
    33    15    44 1   
    34    16    17 ar  
    35    16    45 1   
    36    17    18 1   
    37    18    19 1   
    38    18    46 1   
    39    19    20 2   
    40    19    21 1   
    41    21    22 ar  
    42    21    23 ar  
    43    22    26 ar  
    44    22    47 1   
    45    23    24 ar  
    46    23    48 1   
    47    24    25 ar  
    48    24    49 1   
    49    25    26 ar  
    50    25    50 1   
    51    26    27 1   
    52    27    28 1   
    53    28    51 1   
    54    28    52 1   
    55    28    53 1   
@<TRIPOS>SUBSTRUCTURE
     1 0BW         1 TEMP              0 ****  ****    0 ROOT
