@<TRIPOS>MOLECULE
0BX
   36    38     1     0     0
SMALL
bcc


@<TRIPOS>ATOM
      1 C06         -4.7700     0.5570    -0.0760 ca         1 0BX      -0.142600
      2 C11         -6.2760     0.7490    -0.0680 c          1 0BX       0.924200
      3 C05         -3.9050     1.6430    -0.1960 ca         1 0BX      -0.086500
      4 C10         -2.5340     1.4730    -0.1960 ca         1 0BX      -0.189000
      5 C09         -1.9660     0.1980    -0.0760 ca         1 0BX       0.120600
      6 C08         -2.8220    -0.9000     0.0400 ca         1 0BX      -0.189000
      7 C07         -4.1960    -0.7040     0.0400 ca         1 0BX      -0.086500
      8 N01         -0.5770     0.1410    -0.0770 nu         1 0BX      -0.715300
      9 C12          0.2930    -0.9050    -0.0090 ca         1 0BX       0.948900
     10 N03         -0.1570    -2.1480     0.0470 nb         1 0BX      -0.770000
     11 C15          0.7850    -3.0950     0.1060 ca         1 0BX       0.501200
     12 C14          2.1280    -2.8350     0.1130 ca         1 0BX      -0.510600
     13 C13          2.4940    -1.4720     0.0550 ca         1 0BX       0.750200
     14 N02          1.5760    -0.5240    -0.0070 nb         1 0BX      -0.855000
     15 N04          3.8130    -1.1530     0.0690 nu         1 0BX      -0.748300
     16 C16          4.4730     0.0740     0.0400 ca         1 0BX       0.184600
     17 C17          5.8680     0.0260     0.1470 ca         1 0BX      -0.174500
     18 C18          6.6220     1.1860     0.1230 ca         1 0BX      -0.102000
     19 C19          6.0050     2.4250    -0.0070 ca         1 0BX      -0.168000
     20 C20          4.6240     2.4740    -0.1130 ca         1 0BX      -0.102000
     21 C21          3.8520     1.3190    -0.0920 ca         1 0BX      -0.174500
     22 O22         -6.9730    -0.2790     0.0520 o          1 0BX      -0.827300
     23 O23         -6.6930     1.9190    -0.1800 o          1 0BX      -0.827300
     24 H1          -4.3110     2.6420    -0.2900 ha         1 0BX       0.146500
     25 H2          -1.8870     2.3390    -0.2900 ha         1 0BX       0.123000
     26 H3          -2.4210    -1.8960     0.1320 ha         1 0BX       0.123000
     27 H4          -4.8400    -1.5690     0.1340 ha         1 0BX       0.146500
     28 H5          -0.1130     1.0340    -0.1330 hn         1 0BX       0.440800
     29 H6           0.4300    -4.1180     0.1510 h4         1 0BX       0.014100
     30 H7           2.8620    -3.6270     0.1610 ha         1 0BX       0.138000
     31 H8           4.4290    -1.9490     0.1340 hn         1 0BX       0.435800
     32 H9           6.3650    -0.9310     0.2530 ha         1 0BX       0.147000
     33 H10          7.6990     1.1180     0.2060 ha         1 0BX       0.125500
     34 H11          6.5930     3.3330    -0.0240 ha         1 0BX       0.127000
     35 H12          4.1240     3.4290    -0.2170 ha         1 0BX       0.125500
     36 H13          2.7810     1.3890    -0.1730 ha         1 0BX       0.147000
@<TRIPOS>BOND
     1     1     2 1   
     2     1     3 ar  
     3     1     7 ar  
     4     2    22 1   
     5     2    23 1   
     6     3     4 ar  
     7     3    24 1   
     8     4     5 ar  
     9     4    25 1   
    10     5     6 ar  
    11     5     8 1   
    12     6     7 ar  
    13     6    26 1   
    14     7    27 1   
    15     8     9 1   
    16     8    28 1   
    17     9    10 ar  
    18     9    14 ar  
    19    10    11 ar  
    20    11    12 ar  
    21    11    29 1   
    22    12    13 ar  
    23    12    30 1   
    24    13    14 ar  
    25    13    15 1   
    26    15    16 1   
    27    15    31 1   
    28    16    17 ar  
    29    16    21 ar  
    30    17    18 ar  
    31    17    32 1   
    32    18    19 ar  
    33    18    33 1   
    34    19    20 ar  
    35    19    34 1   
    36    20    21 ar  
    37    20    35 1   
    38    21    36 1   
@<TRIPOS>SUBSTRUCTURE
     1 0BX         1 TEMP              0 ****  ****    0 ROOT
