@<TRIPOS>MOLECULE
0BX
   36    38     1     0     0
SMALL
No Charge or Current Charge


@<TRIPOS>ATOM
      1 C06         -4.8400     0.5390     0.1020 ca         1 0BX      -0.142600
      2 C11         -6.3510     0.6990     0.1540 c          1 0BX       0.713600
      3 C05         -4.0150     1.5920    -0.3570 ca         1 0BX      -0.068500
      4 C10         -2.6180     1.4400    -0.4020 ca         1 0BX      -0.171000
      5 C09         -2.0130     0.2390    -0.0030 ca         1 0BX       0.259000
      6 C08         -2.8250    -0.8070     0.4710 ca         1 0BX      -0.171000
      7 C07         -4.2230    -0.6620     0.5200 ca         1 0BX      -0.068500
      8 N01         -0.6180     0.1490    -0.0560 nu         1 0BX      -0.908900
      9 C12          0.2950    -0.8910    -0.1580 ca         1 0BX       0.422900
     10 N03         -0.1550    -2.1410    -0.3760 nb         1 0BX      -0.244000
     11 C15          0.7780    -3.1050    -0.4750 ca         1 0BX       0.172900
     12 C14          2.1440    -2.8090    -0.3630 ca         1 0BX      -0.362000
     13 C13          2.4970    -1.4750    -0.1560 ca         1 0BX       0.421900
     14 N02          1.5750    -0.5090    -0.0440 nb         1 0BX      -0.329000
     15 N04          3.8350    -1.1460    -0.0140 nu         1 0BX      -0.941900
     16 C16          4.5480     0.0560     0.0490 ca         1 0BX       0.323000
     17 C17          5.7960     0.0620     0.6970 ca         1 0BX      -0.156500
     18 C18          6.5580     1.2420     0.7750 ca         1 0BX      -0.084000
     19 C19          6.0770     2.4250     0.1920 ca         1 0BX      -0.150000
     20 C20          4.8400     2.4260    -0.4720 ca         1 0BX      -0.084000
     21 C21          4.0810     1.2450    -0.5470 ca         1 0BX      -0.156500
     22 O22         -7.0250    -0.2380     0.5590 o          1 0BX      -0.722000
     23 O23         -6.8410     1.7570    -0.2130 o          1 0BX      -0.722000
     24 H1          -4.4550     2.5330    -0.6820 ha         1 0BX       0.128500
     25 H2          -2.0070     2.2640    -0.7600 ha         1 0BX       0.105000
     26 H3          -2.3860    -1.7340     0.8250 ha         1 0BX       0.105000
     27 H4          -4.8260    -1.4890     0.8910 ha         1 0BX       0.128500
     28 H5          -0.1550     1.0550    -0.1030 hn         1 0BX       0.496000
     29 H6           0.4250    -4.1210    -0.6450 h4         1 0BX       0.014100
     30 H7           2.8910    -3.5920    -0.4410 ha         1 0BX       0.120000
     31 H8           4.4160    -1.9670     0.1460 hn         1 0BX       0.491000
     32 H9           6.1760    -0.8490     1.1520 ha         1 0BX       0.129000
     33 H10          7.5190     1.2370     1.2850 ha         1 0BX       0.107500
     34 H11          6.6650     3.3380     0.2490 ha         1 0BX       0.109000
     35 H12          4.4710     3.3400    -0.9350 ha         1 0BX       0.107500
     36 H13          3.1400     1.2580    -1.0850 ha         1 0BX       0.129000
@<TRIPOS>BOND
     1     1     2 1   
     2     1     3 ar  
     3     1     7 ar  
     4     2    22 1   
     5     2    23 1   
     6     3     4 ar  
     7     3    24 1   
     8     4     5 ar  
     9     4    25 1   
    10     5     6 ar  
    11     5     8 1   
    12     6     7 ar  
    13     6    26 1   
    14     7    27 1   
    15     8     9 1   
    16     8    28 1   
    17     9    10 ar  
    18     9    14 ar  
    19    10    11 ar  
    20    11    12 ar  
    21    11    29 1   
    22    12    13 ar  
    23    12    30 1   
    24    13    14 ar  
    25    13    15 1   
    26    15    16 1   
    27    15    31 1   
    28    16    17 ar  
    29    16    21 ar  
    30    17    18 ar  
    31    17    32 1   
    32    18    19 ar  
    33    18    33 1   
    34    19    20 ar  
    35    19    34 1   
    36    20    21 ar  
    37    20    35 1   
    38    21    36 1   
@<TRIPOS>SUBSTRUCTURE
     1 0BX         1 TEMP              0 ****  ****    0 ROOT
