@<TRIPOS>MOLECULE
0BY
   36    38     1     0     0
SMALL
No Charge or Current Charge


@<TRIPOS>ATOM
      1 N01         -1.3030     0.2030     0.1590 nu         1 0BY      -0.907900
      2 N02          0.9160    -0.3290    -0.0310 nb         1 0BY      -0.329000
      3 N03         -0.7330    -2.0740    -0.0700 nb         1 0BY      -0.242000
      4 C05         -4.8740    -0.6180    -0.5860 ca         1 0BY      -0.068500
      5 C06         -5.5390     0.4170     0.1110 ca         1 0BY      -0.142600
      6 C07         -4.7580     1.3670     0.8080 ca         1 0BY      -0.068500
      7 C08         -3.3540     1.2760     0.8110 ca         1 0BY      -0.171000
      8 C09         -2.7000     0.2370     0.1320 ca         1 0BY       0.257000
      9 C10         -3.4700    -0.7030    -0.5770 ca         1 0BY      -0.171000
     10 C12         -0.3430    -0.7880     0.0050 ca         1 0BY       0.421900
     11 C13          1.8810    -1.2480    -0.1740 ca         1 0BY       0.420900
     12 C14          1.5930    -2.6100    -0.2530 ca         1 0BY      -0.357000
     13 C15          0.2440    -2.9890    -0.2000 ca         1 0BY       0.171900
     14 C16          3.8570     0.4080    -0.2550 ca         1 0BY       0.331000
     15 C17          3.2470     1.5420    -0.8330 ca         1 0BY      -0.112000
     16 C18          3.9290     2.7710    -0.8970 ca         1 0BY      -0.086000
     17 C19          5.2340     2.8780    -0.3910 ca         1 0BY      -0.136000
     18 C20          5.8620     1.7550     0.1710 ca         1 0BY      -0.083000
     19 C21          5.1820     0.5250     0.2350 ca         1 0BY       0.060000
     20 O25         -7.6930    -0.3300    -0.5140 o          1 0BY      -0.721500
     21 O26         -7.5890     1.4270     0.7160 o          1 0BY      -0.721500
     22 Cl2          6.0170    -0.8660     0.9420 cl         1 0BY      -0.221000
     23 H1          -0.8800     1.0910     0.4230 hn         1 0BY       0.498000
     24 H2           3.8470    -1.6060    -0.0090 hn         1 0BY       0.505000
     25 H3          -5.4440    -1.3590    -1.1430 ha         1 0BY       0.128500
     26 H4          -5.2350     2.1810     1.3500 ha         1 0BY       0.128500
     27 H5          -2.7760     2.0180     1.3550 ha         1 0BY       0.105000
     28 H6          -2.9940    -1.4960    -1.1440 ha         1 0BY       0.105000
     29 H7           2.3760    -3.3550    -0.3550 ha         1 0BY       0.123000
     30 H8          -0.0590    -4.0340    -0.2590 h4         1 0BY       0.015100
     31 H9           2.2500     1.4760    -1.2540 ha         1 0BY       0.149000
     32 H10          3.4470     3.6370    -1.3450 ha         1 0BY       0.117000
     33 H11          5.7620     3.8290    -0.4420 ha         1 0BY       0.114000
     34 H12          6.8760     1.8350     0.5550 ha         1 0BY       0.122000
     35 C11         -7.0570     0.5120     0.1030 c          1 0BY       0.713600
     36 N04          3.2020    -0.8370    -0.1900 nu         1 0BY      -0.947900
@<TRIPOS>BOND
     1     1     8 1   
     2     1    10 1   
     3     1    23 1   
     4     2    10 ar  
     5     2    11 ar  
     6     3    10 ar  
     7     3    13 ar  
     8     4     5 ar  
     9     4     9 ar  
    10     4    25 1   
    11     5     6 ar  
    12     5    35 1   
    13     6     7 ar  
    14     6    26 1   
    15     7     8 ar  
    16     7    27 1   
    17     8     9 ar  
    18     9    28 1   
    19    11    12 ar  
    20    11    36 1   
    21    12    13 ar  
    22    12    29 1   
    23    13    30 1   
    24    14    15 ar  
    25    14    19 ar  
    26    14    36 1   
    27    15    16 ar  
    28    15    31 1   
    29    16    17 ar  
    30    16    32 1   
    31    17    18 ar  
    32    17    33 1   
    33    18    19 ar  
    34    18    34 1   
    35    19    22 1   
    36    20    35 1   
    37    21    35 1   
    38    24    36 1   
@<TRIPOS>SUBSTRUCTURE
     1 0BY         1 TEMP              0 ****  ****    0 ROOT
