@<TRIPOS>MOLECULE
0BY
   36    38     1     0     0
SMALL
bcc


@<TRIPOS>ATOM
      1 N01         -1.2020     0.2080    -0.0520 nu         1 0BY      -0.714300
      2 N02          0.9690    -0.3790    -0.2170 nb         1 0BY      -0.855000
      3 N03         -0.7110    -2.0520    -0.3490 nb         1 0BY      -0.768000
      4 C05         -4.7900    -0.7660    -0.0280 ca         1 0BY      -0.086500
      5 C06         -5.3980     0.4590     0.2230 ca         1 0BY      -0.142600
      6 C07         -4.5650     1.5670     0.3720 ca         1 0BY      -0.086500
      7 C08         -3.1920     1.4520     0.2760 ca         1 0BY      -0.189000
      8 C09         -2.5890     0.2120     0.0260 ca         1 0BY       0.118600
      9 C10         -3.4130    -0.9060    -0.1280 ca         1 0BY      -0.189000
     10 C12         -0.3010    -0.8000    -0.2150 ca         1 0BY       0.947900
     11 C13          1.9120    -1.2880    -0.3680 ca         1 0BY       0.749200
     12 C14          1.5950    -2.6540    -0.5130 ca         1 0BY      -0.505600
     13 C15          0.2590    -2.9590    -0.4930 ca         1 0BY       0.500200
     14 C16          3.7580     0.3660    -0.2540 ca         1 0BY       0.192600
     15 C17          3.1370     1.5090    -0.7640 ca         1 0BY      -0.130000
     16 C18          3.7360     2.7520    -0.6500 ca         1 0BY      -0.104000
     17 C19          4.9760     2.8900    -0.0430 ca         1 0BY      -0.154000
     18 C20          5.6190     1.7670     0.4540 ca         1 0BY      -0.101000
     19 C21          5.0100     0.5270     0.3530 ca         1 0BY      -0.031600
     20 O25         -7.5720    -0.4540     0.1720 o          1 0BY      -0.826800
     21 O26         -7.3550     1.7270     0.5740 o          1 0BY      -0.826800
     22 CL2          5.8330    -0.8560     1.0040 cl         1 0BY      -0.129400
     23 H1          -0.7640     1.1110     0.0530 hn         1 0BY       0.442800
     24 H2           3.8820    -1.6710    -0.3710 hn         1 0BY       0.449800
     25 H3          -5.4090    -1.6450    -0.1520 ha         1 0BY       0.146500
     26 H4          -4.9990     2.5390     0.5700 ha         1 0BY       0.146500
     27 H5          -2.5710     2.3330     0.3990 ha         1 0BY       0.123000
     28 H6          -2.9820    -1.8740    -0.3240 ha         1 0BY       0.123000
     29 H7           2.3530    -3.4140    -0.6310 ha         1 0BY       0.141000
     30 H8          -0.0630    -3.9890    -0.6000 h4         1 0BY       0.015100
     31 H9           2.1810     1.4200    -1.2540 ha         1 0BY       0.167000
     32 H10          3.2290     3.6190    -1.0510 ha         1 0BY       0.135000
     33 H11          5.4460     3.8610     0.0440 ha         1 0BY       0.132000
     34 H12          6.5870     1.8520     0.9280 ha         1 0BY       0.140000
     35 C11         -6.9070     0.5880     0.3330 c          1 0BY       0.924200
     36 N04          3.2200    -0.9110    -0.3700 nu         1 0BY      -0.754300
@<TRIPOS>BOND
     1     1     8 1   
     2     1    10 1   
     3     1    23 1   
     4     2    10 ar  
     5     2    11 ar  
     6     3    10 ar  
     7     3    13 ar  
     8     4     5 ar  
     9     4     9 ar  
    10     4    25 1   
    11     5     6 ar  
    12     5    35 1   
    13     6     7 ar  
    14     6    26 1   
    15     7     8 ar  
    16     7    27 1   
    17     8     9 ar  
    18     9    28 1   
    19    11    12 ar  
    20    11    36 1   
    21    12    13 ar  
    22    12    29 1   
    23    13    30 1   
    24    14    15 ar  
    25    14    19 ar  
    26    14    36 1   
    27    15    16 ar  
    28    15    31 1   
    29    16    17 ar  
    30    16    32 1   
    31    17    18 ar  
    32    17    33 1   
    33    18    19 ar  
    34    18    34 1   
    35    19    22 1   
    36    20    35 1   
    37    21    35 1   
    38    24    36 1   
@<TRIPOS>SUBSTRUCTURE
     1 0BY         1 TEMP              0 ****  ****    0 ROOT
