@<TRIPOS>MOLECULE
0BZ
   36    38     1     0     0
SMALL
bcc


@<TRIPOS>ATOM
      1 F24          6.1410     0.8770    -0.0100 f          1 0BZ      -0.160900
      2 N02          1.2360     0.4010     0.0730 nb         1 0BZ      -0.857000
      3 N03         -0.4500     2.0730     0.0380 nb         1 0BZ      -0.768000
      4 N04          3.4910     0.9720     0.1060 nu         1 0BZ      -0.744300
      5 C05         -4.5260     0.7590    -0.0670 ca         1 0BZ      -0.086500
      6 C06         -5.1400    -0.4880    -0.0290 ca         1 0BZ      -0.141600
      7 C07         -4.3110    -1.6070     0.0340 ca         1 0BZ      -0.086500
      8 C08         -2.9350    -1.4810     0.0570 ca         1 0BZ      -0.189000
      9 C09         -2.3260    -0.2200     0.0180 ca         1 0BZ       0.118600
     10 C10         -3.1460     0.9100    -0.0430 ca         1 0BZ      -0.189000
     11 C12         -0.0360     0.8160     0.0500 ca         1 0BZ       0.948900
     12 C13          2.1790     1.3250     0.0860 ca         1 0BZ       0.750200
     13 C14          1.8530     2.6980     0.0780 ca         1 0BZ      -0.506600
     14 C15          0.5180     2.9950     0.0530 ca         1 0BZ       0.501200
     15 C16          4.0980    -0.2780     0.1110 ca         1 0BZ       0.157600
     16 C17          3.4480    -1.5120     0.1760 ca         1 0BZ      -0.132000
     17 C18          4.1780    -2.6940     0.1790 ca         1 0BZ      -0.113000
     18 C19          5.5620    -2.6840     0.1200 ca         1 0BZ      -0.146000
     19 C20          6.2290    -1.4670     0.0570 ca         1 0BZ      -0.139000
     20 C21          5.4950    -0.3050     0.0530 ca         1 0BZ       0.055900
     21 O25         -7.1080    -1.7880    -0.0120 o          1 0BZ      -0.826800
     22 O26         -7.3110     0.4280    -0.1250 o          1 0BZ      -0.826800
     23 H1          -0.5000    -1.1150     0.0630 hn         1 0BZ       0.440800
     24 H2           4.1270     1.7540     0.1040 hn         1 0BZ       0.450800
     25 H3          -5.1420     1.6470    -0.1180 ha         1 0BZ       0.146500
     26 H4          -4.7490    -2.5960     0.0670 ha         1 0BZ       0.146500
     27 H5          -2.3170    -2.3710     0.1060 ha         1 0BZ       0.122500
     28 H6          -2.7120     1.8960    -0.0720 ha         1 0BZ       0.122500
     29 H7           2.6100     3.4700     0.0890 ha         1 0BZ       0.141000
     30 H8           0.1920     4.0290     0.0450 h4         1 0BZ       0.015100
     31 H9           2.3730    -1.5460     0.2210 ha         1 0BZ       0.177000
     32 H10          3.6440    -3.6340     0.2310 ha         1 0BZ       0.135000
     33 H11          6.1250    -3.6070     0.1220 ha         1 0BZ       0.132000
     34 H12          7.3090    -1.4170     0.0100 ha         1 0BZ       0.142000
     35 N01         -0.9370    -0.2060     0.0420 nu         1 0BZ      -0.714300
     36 C11         -6.6510    -0.6280    -0.0570 c          1 0BZ       0.924200
@<TRIPOS>BOND
     1     1    20 1   
     2     2    11 ar  
     3     2    12 ar  
     4     3    11 ar  
     5     3    14 ar  
     6     4    12 1   
     7     4    15 1   
     8     4    24 1   
     9     5     6 ar  
    10     5    10 ar  
    11     5    25 1   
    12     6     7 ar  
    13     6    36 1   
    14     7     8 ar  
    15     7    26 1   
    16     8     9 ar  
    17     8    27 1   
    18     9    10 ar  
    19     9    35 1   
    20    10    28 1   
    21    11    35 1   
    22    12    13 ar  
    23    13    14 ar  
    24    13    29 1   
    25    14    30 1   
    26    15    16 ar  
    27    15    20 ar  
    28    16    17 ar  
    29    16    31 1   
    30    17    18 ar  
    31    17    32 1   
    32    18    19 ar  
    33    18    33 1   
    34    19    20 ar  
    35    19    34 1   
    36    21    36 1   
    37    22    36 1   
    38    23    35 1   
@<TRIPOS>SUBSTRUCTURE
     1 0BZ         1 TEMP              0 ****  ****    0 ROOT
