@<TRIPOS>MOLECULE
0BZ
   36    38     1     0     0
SMALL
No Charge or Current Charge


@<TRIPOS>ATOM
      1 F24          6.0560     0.8510    -0.9330 f          1 0BZ      -0.196000
      2 N02          1.2240     0.3890     0.1410 nb         1 0BZ      -0.331000
      3 N03         -0.4680     2.0620     0.4670 nb         1 0BZ      -0.242000
      4 N04          3.5010     0.9580     0.2080 nu         1 0BZ      -0.937900
      5 C05         -4.5470     0.7270    -0.5920 ca         1 0BZ      -0.068500
      6 C06         -5.2110    -0.4650    -0.2210 ca         1 0BZ      -0.141600
      7 C07         -4.4320    -1.5510     0.2380 ca         1 0BZ      -0.068500
      8 C08         -3.0330    -1.4430     0.3270 ca         1 0BZ      -0.171000
      9 C09         -2.3810    -0.2510    -0.0260 ca         1 0BZ       0.257000
     10 C10         -3.1470     0.8290    -0.4990 ca         1 0BZ      -0.171000
     11 C12         -0.0480     0.8070     0.2190 ca         1 0BZ       0.422900
     12 C13          2.1700     1.3230     0.3140 ca         1 0BZ       0.421900
     13 C14          1.8480     2.6590     0.5500 ca         1 0BZ      -0.358000
     14 C15          0.4880     2.9930     0.6270 ca         1 0BZ       0.172900
     15 C16          4.1950    -0.2650     0.1090 ca         1 0BZ       0.296000
     16 C17          3.6560    -1.4720     0.6040 ca         1 0BZ      -0.114000
     17 C18          4.3780    -2.6760     0.5030 ca         1 0BZ      -0.095000
     18 C19          5.6530    -2.6880    -0.0860 ca         1 0BZ      -0.128000
     19 C20          6.2110    -1.4930    -0.5680 ca         1 0BZ      -0.121000
     20 C21          5.4910    -0.2900    -0.4670 ca         1 0BZ       0.091000
     21 O25         -7.2550    -1.6290     0.0070 o          1 0BZ      -0.721500
     22 O26         -7.3580     0.3880    -0.7230 o          1 0BZ      -0.721500
     23 H1          -0.5510    -1.1240     0.1100 hn         1 0BZ       0.496000
     24 H2           4.1100     1.7650     0.0710 hn         1 0BZ       0.506000
     25 H3          -5.1140     1.5800    -0.9610 ha         1 0BZ       0.128500
     26 H4          -4.9080    -2.4860     0.5270 ha         1 0BZ       0.128500
     27 H5          -2.4570    -2.2930     0.6830 ha         1 0BZ       0.104500
     28 H6          -2.6710     1.7500    -0.8170 ha         1 0BZ       0.104500
     29 H7           2.6150     3.4170     0.6790 ha         1 0BZ       0.123000
     30 H8           0.1610     4.0140     0.8180 h4         1 0BZ       0.015100
     31 H9           2.6860    -1.4830     1.0880 ha         1 0BZ       0.159000
     32 H10          3.9500    -3.5990     0.8890 ha         1 0BZ       0.117000
     33 H11          6.2090    -3.6200    -0.1620 ha         1 0BZ       0.114000
     34 H12          7.2010    -1.4950    -1.0180 ha         1 0BZ       0.124000
     35 N01         -0.9870    -0.2040     0.0700 nu         1 0BZ      -0.907900
     36 C11         -6.7240    -0.5770    -0.3200 c          1 0BZ       0.713600
@<TRIPOS>BOND
     1     1    20 1   
     2     2    11 ar  
     3     2    12 ar  
     4     3    11 ar  
     5     3    14 ar  
     6     4    12 1   
     7     4    15 1   
     8     4    24 1   
     9     5     6 ar  
    10     5    10 ar  
    11     5    25 1   
    12     6     7 ar  
    13     6    36 1   
    14     7     8 ar  
    15     7    26 1   
    16     8     9 ar  
    17     8    27 1   
    18     9    10 ar  
    19     9    35 1   
    20    10    28 1   
    21    11    35 1   
    22    12    13 ar  
    23    13    14 ar  
    24    13    29 1   
    25    14    30 1   
    26    15    16 ar  
    27    15    20 ar  
    28    16    17 ar  
    29    16    31 1   
    30    17    18 ar  
    31    17    32 1   
    32    18    19 ar  
    33    18    33 1   
    34    19    20 ar  
    35    19    34 1   
    36    21    36 1   
    37    22    36 1   
    38    23    35 1   
@<TRIPOS>SUBSTRUCTURE
     1 0BZ         1 TEMP              0 ****  ****    0 ROOT
