@<TRIPOS>MOLECULE
0C0
   46    49     1     0     0
SMALL
No Charge or Current Charge


@<TRIPOS>ATOM
      1 N01         -1.3540    -1.8050    -0.7040 nb         1 0C0      -0.245000
      2 N02          0.1440     0.0300    -0.3140 nb         1 0C0      -0.328000
      3 N03          2.4530    -0.2170    -0.6600 nu         1 0C0      -0.954900
      4 N04         -2.0960     0.2890     0.0840 nu         1 0C0      -0.909900
      5 C05         -0.3130    -2.5710    -1.0780 ca         1 0C0       0.170900
      6 C06         -1.0700    -0.5380    -0.3500 ca         1 0C0       0.420900
      7 C07          1.1720    -0.7370    -0.7010 ca         1 0C0       0.417900
      8 C08          0.9940    -2.0650    -1.0870 ca         1 0C0      -0.361000
      9 C09          3.0040     1.0570    -0.4510 ca         1 0C0       0.329000
     10 C10          2.2800     2.2250    -0.7700 ca         1 0C0      -0.111000
     11 C11          2.8550     3.4960    -0.6090 ca         1 0C0      -0.088000
     12 C12          4.1700     3.6130    -0.1400 ca         1 0C0      -0.139000
     13 C13          4.9100     2.4600     0.1640 ca         1 0C0      -0.082000
     14 C14          4.3470     1.1680     0.0180 cp         1 0C0      -0.092000
     15 C15          5.1810    -0.0290     0.3580 cp         1 0C0      -0.039000
     16 C16         -3.4910     0.1950     0.1220 ca         1 0C0       0.259000
     17 C17         -4.1860     0.9760     1.0580 ca         1 0C0      -0.172000
     18 C18         -5.5890     0.9310     1.1320 ca         1 0C0      -0.068500
     19 C19         -6.3310     0.1040     0.2570 ca         1 0C0      -0.142600
     20 C20         -5.6260    -0.6680    -0.6950 ca         1 0C0      -0.068500
     21 C21         -4.2220    -0.6180    -0.7630 ca         1 0C0      -0.172000
     22 C22         -7.8480     0.0520     0.3330 c          1 0C0       0.713600
     23 C23          4.7180    -1.0230     1.2570 ca         1 0C0      -0.101000
     24 C24          5.5120    -2.1380     1.5740 ca         1 0C0      -0.114500
     25 C25          6.7880    -2.2780     1.0030 ca         1 0C0      -0.112000
     26 C26          7.2700    -1.2980     0.1200 ca         1 0C0      -0.114500
     27 C27          6.4750    -0.1830    -0.1960 ca         1 0C0      -0.101000
     28 O28         -8.4490    -0.6760    -0.4440 o          1 0C0      -0.722000
     29 O29         -8.4170     0.7410     1.1690 o          1 0C0      -0.722000
     30 H1           3.1640    -0.9440    -0.6860 hn         1 0C0       0.501000
     31 H2          -1.7330     1.1240     0.5390 hn         1 0C0       0.498000
     32 H3          -0.5310    -3.5980    -1.3670 h4         1 0C0       0.013100
     33 H4           1.8310    -2.6890    -1.3860 ha         1 0C0       0.122000
     34 H5           1.2750     2.1560    -1.1700 ha         1 0C0       0.142000
     35 H6           2.2840     4.3880    -0.8600 ha         1 0C0       0.114000
     36 H7           4.6200     4.5970    -0.0180 ha         1 0C0       0.110000
     37 H8           5.9300     2.5650     0.5260 ha         1 0C0       0.110000
     38 H9          -3.6390     1.6200     1.7420 ha         1 0C0       0.105000
     39 H10         -6.0980     1.5430     1.8740 ha         1 0C0       0.127500
     40 H11         -6.1650    -1.3060    -1.3920 ha         1 0C0       0.127500
     41 H12         -3.7170    -1.2050    -1.5230 ha         1 0C0       0.105000
     42 H13          3.7380    -0.9200     1.7180 ha         1 0C0       0.121500
     43 H14          5.1400    -2.8920     2.2650 ha         1 0C0       0.111500
     44 H15          7.4030    -3.1410     1.2490 ha         1 0C0       0.109000
     45 H16          8.2600    -1.4030    -0.3200 ha         1 0C0       0.111500
     46 H17          6.8590     0.5660    -0.8850 ha         1 0C0       0.121500
@<TRIPOS>BOND
     1     1     5 ar  
     2     1     6 ar  
     3     2     6 ar  
     4     2     7 ar  
     5     3     7 1   
     6     3     9 1   
     7     3    30 1   
     8     4     6 1   
     9     4    16 1   
    10     4    31 1   
    11     5     8 ar  
    12     5    32 1   
    13     7     8 ar  
    14     8    33 1   
    15     9    10 ar  
    16     9    14 ar  
    17    10    11 ar  
    18    10    34 1   
    19    11    12 ar  
    20    11    35 1   
    21    12    13 ar  
    22    12    36 1   
    23    13    14 ar  
    24    13    37 1   
    25    14    15 1   
    26    15    23 ar  
    27    15    27 ar  
    28    16    17 ar  
    29    16    21 ar  
    30    17    18 ar  
    31    17    38 1   
    32    18    19 ar  
    33    18    39 1   
    34    19    20 ar  
    35    19    22 1   
    36    20    21 ar  
    37    20    40 1   
    38    21    41 1   
    39    22    28 1   
    40    22    29 1   
    41    23    24 ar  
    42    23    42 1   
    43    24    25 ar  
    44    24    43 1   
    45    25    26 ar  
    46    25    44 1   
    47    26    27 ar  
    48    26    45 1   
    49    27    46 1   
@<TRIPOS>SUBSTRUCTURE
     1 0C0         1 TEMP              0 ****  ****    0 ROOT
