@<TRIPOS>MOLECULE
0C0
   46    49     1     0     0
SMALL
abcg2


@<TRIPOS>ATOM
      1 N01         -1.2820    -1.7190    -0.9720 nb         1 0C0      -0.245000
      2 N02          0.2650     0.0280    -0.5250 nb         1 0C0      -0.328000
      3 N03          2.5190    -0.2100    -0.9960 nu         1 0C0      -0.954900
      4 N04         -1.9210     0.3220    -0.0460 nu         1 0C0      -0.909900
      5 C05         -0.2630    -2.4540    -1.4260 ca         1 0C0       0.170900
      6 C06         -0.9600    -0.5090    -0.5410 ca         1 0C0       0.420900
      7 C07          1.2580    -0.7110    -0.9880 ca         1 0C0       0.417900
      8 C08          1.0340    -2.0190    -1.4660 ca         1 0C0      -0.361000
      9 C09          2.9580     1.0500    -0.5740 ca         1 0C0       0.329000
     10 C10          2.2360     2.2090    -0.8600 ca         1 0C0      -0.111000
     11 C11          2.7330     3.4500    -0.5000 ca         1 0C0      -0.088000
     12 C12          3.9660     3.5580     0.1280 ca         1 0C0      -0.139000
     13 C13          4.6890     2.4090     0.4040 ca         1 0C0      -0.082000
     14 C14          4.1980     1.1470     0.0780 cp         1 0C0      -0.092000
     15 C15          4.9970    -0.0540     0.4150 cp         1 0C0      -0.039000
     16 C16         -3.2950     0.1750     0.0870 ca         1 0C0       0.259000
     17 C17         -3.9790     1.2350     0.6980 ca         1 0C0      -0.172000
     18 C18         -5.3500     1.1920     0.8680 ca         1 0C0      -0.068500
     19 C19         -6.1010     0.0990     0.4380 ca         1 0C0      -0.142600
     20 C20         -5.4120    -0.9470    -0.1660 ca         1 0C0      -0.068500
     21 C21         -4.0360    -0.9280    -0.3450 ca         1 0C0      -0.172000
     22 C22         -7.6070     0.0550     0.6200 c          1 0C0       0.713600
     23 C23          4.4600    -1.0810     1.1940 ca         1 0C0      -0.101000
     24 C24          5.2290    -2.1830     1.5370 ca         1 0C0      -0.114500
     25 C25          6.5460    -2.2790     1.1060 ca         1 0C0      -0.112000
     26 C26          7.0890    -1.2640     0.3310 ca         1 0C0      -0.114500
     27 C27          6.3210    -0.1600    -0.0120 ca         1 0C0      -0.101000
     28 O28         -8.1940    -0.9590     0.1920 o          1 0C0      -0.722000
     29 O29         -8.1340     1.0360     1.1820 o          1 0C0      -0.722000
     30 H1           3.2430    -0.8740    -1.2250 hn         1 0C0       0.501000
     31 H2          -1.5490     1.2030     0.2780 hn         1 0C0       0.498000
     32 H3          -0.5140    -3.4480    -1.7790 h4         1 0C0       0.013100
     33 H4           1.8340    -2.6400    -1.8440 ha         1 0C0       0.122000
     34 H5           1.2910     2.1410    -1.3780 ha         1 0C0       0.142000
     35 H6           2.1580     4.3390    -0.7290 ha         1 0C0       0.114000
     36 H7           4.3620     4.5280     0.4000 ha         1 0C0       0.110000
     37 H8           5.6460     2.4840     0.9070 ha         1 0C0       0.110000
     38 H9          -3.4240     2.1000     1.0450 ha         1 0C0       0.105000
     39 H10         -5.8470     2.0280     1.3430 ha         1 0C0       0.127500
     40 H11         -5.9640    -1.8110    -0.5130 ha         1 0C0       0.127500
     41 H12         -3.5430    -1.7620    -0.8150 ha         1 0C0       0.105000
     42 H13          3.4410    -1.0080     1.5530 ha         1 0C0       0.121500
     43 H14          4.7980    -2.9660     2.1480 ha         1 0C0       0.111500
     44 H15          7.1450    -3.1390     1.3750 ha         1 0C0       0.109000
     45 H16          8.1140    -1.3320    -0.0120 ha         1 0C0       0.111500
     46 H17          6.7500     0.6240    -0.6240 ha         1 0C0       0.121500
@<TRIPOS>BOND
     1     1     5 ar  
     2     1     6 ar  
     3     2     6 ar  
     4     2     7 ar  
     5     3     7 1   
     6     3     9 1   
     7     3    30 1   
     8     4     6 1   
     9     4    16 1   
    10     4    31 1   
    11     5     8 ar  
    12     5    32 1   
    13     7     8 ar  
    14     8    33 1   
    15     9    10 ar  
    16     9    14 ar  
    17    10    11 ar  
    18    10    34 1   
    19    11    12 ar  
    20    11    35 1   
    21    12    13 ar  
    22    12    36 1   
    23    13    14 ar  
    24    13    37 1   
    25    14    15 1   
    26    15    23 ar  
    27    15    27 ar  
    28    16    17 ar  
    29    16    21 ar  
    30    17    18 ar  
    31    17    38 1   
    32    18    19 ar  
    33    18    39 1   
    34    19    20 ar  
    35    19    22 1   
    36    20    21 ar  
    37    20    40 1   
    38    21    41 1   
    39    22    28 1   
    40    22    29 1   
    41    23    24 ar  
    42    23    42 1   
    43    24    25 ar  
    44    24    43 1   
    45    25    26 ar  
    46    25    44 1   
    47    26    27 ar  
    48    26    45 1   
    49    27    46 1   
@<TRIPOS>SUBSTRUCTURE
     1 0C0         1 TEMP              0 ****  ****    0 ROOT
