@<TRIPOS>MOLECULE
0C1
   54    58     1     0     0
SMALL
bcc


@<TRIPOS>ATOM
      1 C1          -2.9460     3.4180    -1.5640 ca         1 0C1      -0.036000
      2 C2          -1.6010     3.0930    -1.5970 ca         1 0C1      -0.194000
      3 C3           3.8650     1.8870     2.1580 ca         1 0C1      -0.130000
      4 C4           2.5540     2.3220     2.2890 ca         1 0C1      -0.139000
      5 C5           3.4900     1.5070    -0.1970 ca         1 0C1      -0.137000
      6 C6          -2.1510     0.9180    -0.5740 ca         1 0C1      -0.114800
      7 C7          -1.4250    -0.2350    -0.1580 cc         1 0C1       0.031800
      8 C8          -3.8860     2.5170    -1.0600 ca         1 0C1      -0.221300
      9 C9           2.1740     1.9340    -0.0760 ca         1 0C1      -0.148300
     10 C10         -1.2240     1.8360    -1.1130 ca         1 0C1       0.015800
     11 C11         -3.4960     1.2860    -0.5810 ca         1 0C1       0.204100
     12 C12          4.3100     1.4910     0.9130 ca         1 0C1       0.143900
     13 C13          1.7380     2.3430     1.1760 ca         1 0C1       0.142900
     14 C14         -0.1140     0.0100    -0.4710 cd         1 0C1      -0.158300
     15 C15         -2.4120    -3.8600     0.2830 cd         1 0C1      -0.251000
     16 C16         -1.8690    -2.6700    -0.2530 cd         1 0C1      -0.031000
     17 C17         -3.0750    -3.7760     1.4630 cc         1 0C1       0.026600
     18 C18         -1.9850    -1.4720     0.3890 cc         1 0C1      -0.142200
     19 C19         -2.6710    -1.3870     1.6610 c          1 0C1       0.711700
     20 C20          1.0000    -0.9320    -0.2540 c          1 0C1       0.732300
     21 C21         -5.3860     2.5820    -0.9860 c5         1 0C1      -0.044100
     22 C22         -5.6960     1.3350    -0.1420 c5         1 0C1       0.121400
     23 C23          2.6410    -3.6830    -1.2740 c3         1 0C1      -0.255300
     24 N1           0.0160     1.2540    -1.0570 na         1 0C1      -0.045400
     25 N2          -3.1920    -2.5890     2.0990 ns         1 0C1      -0.431100
     26 N3           1.8470    -1.0750    -1.3320 ns         1 0C1      -0.655300
     27 O1          -2.7960    -0.3710     2.3340 o          1 0C1      -0.614500
     28 O2           1.1340    -1.5640     0.7670 o          1 0C1      -0.525100
     29 O3           3.9680    -1.7440    -0.0830 o          1 0C1      -0.591800
     30 O4           3.8690    -1.7510    -2.5870 o          1 0C1      -0.591800
     31 O5          -4.5110     0.5130    -0.1630 os         1 0C1      -0.294900
     32 F1           5.5760     1.0720     0.7760 f          1 0C1      -0.128900
     33 F2           0.4760     2.7790     1.3060 f          1 0C1      -0.126900
     34 S1           3.2440    -2.0180    -1.3060 s6         1 0C1       1.245600
     35 H1          -3.2700     4.3790    -1.9440 ha         1 0C1       0.132000
     36 H2          -0.8830     3.7930    -2.0020 ha         1 0C1       0.137000
     37 H4           2.1740     2.6450     3.2480 ha         1 0C1       0.158000
     38 H5           3.8690     1.1770    -1.1560 ha         1 0C1       0.150000
     39 H6          -2.3160    -4.8050    -0.2290 ha         1 0C1       0.148000
     40 H7          -1.3550    -2.7100    -1.2060 ha         1 0C1       0.127000
     41 H8          -3.5340    -4.6220     1.9520 h4         1 0C1       0.148000
     42 H10         -5.7610     3.4880    -0.5100 hc         1 0C1       0.058200
     43 H11         -5.8360     2.5260    -1.9810 hc         1 0C1       0.058200
     44 H12         -5.9060     1.6030     0.8960 h1         1 0C1       0.058700
     45 H13         -6.5270     0.7440    -0.5240 h1         1 0C1       0.058700
     46 H14          2.0800    -3.8450    -0.3570 h1         1 0C1       0.109033
     47 H15          2.0160    -3.8510    -2.1470 h1         1 0C1       0.109033
     48 H16          3.5090    -4.3410    -1.3000 h1         1 0C1       0.109033
     49 H19          1.5520    -0.7700    -2.2520 hn         1 0C1       0.346500
     50 H9          -3.6860    -2.5660     2.9810 hn         1 0C1       0.325500
     51 C24          1.2640     1.9620    -1.2750 c3         1 0C1       0.103600
     52 H3           4.5240     1.8580     3.0150 ha         1 0C1       0.157000
     53 H17          1.0180     2.9930    -1.5250 h1         1 0C1       0.068200
     54 H18          1.7870     1.5610    -2.1440 h1         1 0C1       0.068200
@<TRIPOS>BOND
     1     1     2 ar  
     2     1     8 ar  
     3     1    35 1   
     4     2    10 ar  
     5     2    36 1   
     6     3     4 ar  
     7     3    12 ar  
     8     3    52 1   
     9     4    13 ar  
    10     4    37 1   
    11     5     9 ar  
    12     5    12 ar  
    13     5    38 1   
    14     6     7 1   
    15     6    10 ar  
    16     6    11 ar  
    17     7    14 2   
    18     7    18 1   
    19     8    11 ar  
    20     8    21 1   
    21     9    13 ar  
    22     9    51 1   
    23    10    24 1   
    24    11    31 1   
    25    12    32 1   
    26    13    33 1   
    27    14    20 1   
    28    14    24 1   
    29    15    16 1   
    30    15    17 2   
    31    15    39 1   
    32    16    18 2   
    33    16    40 1   
    34    17    25 1   
    35    17    41 1   
    36    18    19 1   
    37    19    25 1   
    38    19    27 2   
    39    20    26 1   
    40    20    28 2   
    41    21    22 1   
    42    21    42 1   
    43    21    43 1   
    44    22    31 1   
    45    22    44 1   
    46    22    45 1   
    47    23    34 1   
    48    23    46 1   
    49    23    47 1   
    50    23    48 1   
    51    24    51 1   
    52    25    50 1   
    53    26    34 1   
    54    26    49 1   
    55    29    34 2   
    56    30    34 2   
    57    51    53 1   
    58    51    54 1   
@<TRIPOS>SUBSTRUCTURE
     1 0C1         1 TEMP              0 ****  ****    0 ROOT
