@<TRIPOS>MOLECULE
0C1
   54    58     1     0     0
SMALL
No Charge or Current Charge


@<TRIPOS>ATOM
      1 C1          -3.0080     3.3530    -1.6680 ca         1 0C1      -0.018000
      2 C2          -1.6510     2.9680    -1.7040 ca         1 0C1      -0.176000
      3 C3           4.0520     1.7560     2.0350 ca         1 0C1      -0.112000
      4 C4           2.6880     1.9800     2.2940 ca         1 0C1      -0.121000
      5 C5           3.5790     1.6780    -0.3540 ca         1 0C1      -0.119000
      6 C6          -2.1870     0.9240    -0.5100 ca         1 0C1      -0.114800
      7 C7          -1.5060    -0.2830    -0.1090 cc         1 0C1       0.031800
      8 C8          -3.9420     2.4780    -1.0820 ca         1 0C1      -0.221300
      9 C9           2.2030     1.8780    -0.1050 ca         1 0C1      -0.148300
     10 C10         -1.2680     1.7390    -1.1180 ca         1 0C1       0.015800
     11 C11         -3.5480     1.2790    -0.5250 ca         1 0C1       0.204100
     12 C12          4.4920     1.6110     0.7120 ca         1 0C1       0.179000
     13 C13          1.7700     2.0470     1.2320 ca         1 0C1       0.178000
     14 C14         -0.1750    -0.1670    -0.5590 cd         1 0C1      -0.158300
     15 C15         -2.4240    -3.8600     0.6530 cd         1 0C1      -0.301000
     16 C16         -1.7970    -2.7050     0.0600 cd         1 0C1      -0.081000
     17 C17         -3.3150    -3.6930     1.6910 cc         1 0C1      -0.023400
     18 C18         -2.0970    -1.4360     0.5440 cc         1 0C1      -0.142200
     19 C19         -3.0340    -1.2570     1.6890 c          1 0C1       0.569200
     20 C20          0.9230    -1.1500    -0.2760 c          1 0C1       0.665300
     21 C21         -5.4310     2.6190    -1.0520 c5         1 0C1      -0.044100
     22 C22         -5.7550     1.3850    -0.1310 c5         1 0C1       0.144600
     23 C23          2.9150    -3.5170    -1.6950 c3         1 0C1      -0.366100
     24 N1          -0.0160     1.1370    -1.1340 na         1 0C1      -0.074700
     25 N2          -3.5850    -2.4220     2.1610 ns         1 0C1      -0.364100
     26 N3           1.9720    -1.0470    -1.1310 ns         1 0C1      -0.588300
     27 O1          -3.2690    -0.1960     2.2500 o          1 0C1      -0.539000
     28 O2           0.8940    -1.9940     0.6040 o          1 0C1      -0.525100
     29 O3           3.8480    -2.0360     0.2840 o          1 0C1      -0.521000
     30 O4           4.2780    -1.2990    -2.1090 o          1 0C1      -0.521000
     31 O5          -4.5980     0.4850    -0.1530 os         1 0C1      -0.318100
     32 F1           5.8040     1.4080     0.4590 f          1 0C1      -0.164000
     33 F2           0.4720     2.2950     1.5140 f          1 0C1      -0.162000
     34 S1           3.4000    -1.9050    -1.1060 s6         1 0C1       1.214800
     35 H1          -3.3320     4.2830    -2.1300 ha         1 0C1       0.114000
     36 H2          -0.9310     3.6060    -2.2090 ha         1 0C1       0.119000
     37 H4           2.3400     2.1080     3.3160 ha         1 0C1       0.140000
     38 H5           3.9480     1.5690    -1.3710 ha         1 0C1       0.132000
     39 H6          -2.2090    -4.8570     0.2750 ha         1 0C1       0.198000
     40 H7          -1.1370    -2.8380    -0.7930 ha         1 0C1       0.177000
     41 H8          -3.8530    -4.4820     2.2110 h4         1 0C1       0.198000
     42 H10         -5.7720     3.5650    -0.6160 hc         1 0C1       0.058200
     43 H11         -5.8780     2.5150    -2.0460 hc         1 0C1       0.058200
     44 H12         -5.9030     1.7150     0.9060 h1         1 0C1       0.058700
     45 H13         -6.6560     0.8440    -0.4470 h1         1 0C1       0.058700
     46 H14          2.1830    -3.9210    -0.9880 h1         1 0C1       0.109033
     47 H15          2.4810    -3.3890    -2.6920 h1         1 0C1       0.109033
     48 H16          3.8170    -4.1370    -1.7300 h1         1 0C1       0.109033
     49 H19          1.9320    -0.3980    -1.8950 hn         1 0C1       0.346500
     50 H9          -4.2220    -2.3040     2.9410 hn         1 0C1       0.325500
     51 C24          1.2290     1.9390    -1.2870 c3         1 0C1       0.132900
     52 H3           4.7660     1.7030     2.8540 ha         1 0C1       0.139000
     53 H17          0.9680     2.9930    -1.4290 h1         1 0C1       0.068200
     54 H18          1.7320     1.6190    -2.2070 h1         1 0C1       0.068200
@<TRIPOS>BOND
     1     1     2 ar  
     2     1     8 ar  
     3     1    35 1   
     4     2    10 ar  
     5     2    36 1   
     6     3     4 ar  
     7     3    12 ar  
     8     3    52 1   
     9     4    13 ar  
    10     4    37 1   
    11     5     9 ar  
    12     5    12 ar  
    13     5    38 1   
    14     6     7 1   
    15     6    10 ar  
    16     6    11 ar  
    17     7    14 2   
    18     7    18 1   
    19     8    11 ar  
    20     8    21 1   
    21     9    13 ar  
    22     9    51 1   
    23    10    24 1   
    24    11    31 1   
    25    12    32 1   
    26    13    33 1   
    27    14    20 1   
    28    14    24 1   
    29    15    16 1   
    30    15    17 2   
    31    15    39 1   
    32    16    18 2   
    33    16    40 1   
    34    17    25 1   
    35    17    41 1   
    36    18    19 1   
    37    19    25 1   
    38    19    27 2   
    39    20    26 1   
    40    20    28 2   
    41    21    22 1   
    42    21    42 1   
    43    21    43 1   
    44    22    31 1   
    45    22    44 1   
    46    22    45 1   
    47    23    34 1   
    48    23    46 1   
    49    23    47 1   
    50    23    48 1   
    51    24    51 1   
    52    25    50 1   
    53    26    34 1   
    54    26    49 1   
    55    29    34 2   
    56    30    34 2   
    57    51    53 1   
    58    51    54 1   
@<TRIPOS>SUBSTRUCTURE
     1 0C1         1 TEMP              0 ****  ****    0 ROOT
