@<TRIPOS>MOLECULE
0C2
   57    61     1     0     0
SMALL
bcc


@<TRIPOS>ATOM
      1 C1           3.2050     2.7450     0.8550 ca         1 0C2      -0.040000
      2 C2           1.8530     2.5350     1.0640 ca         1 0C2      -0.196000
      3 C3          -3.4980     3.3630    -1.5390 ca         1 0C2      -0.132000
      4 C4          -4.0140     3.0880    -0.2820 ca         1 0C2      -0.126000
      5 C5          -1.3630     2.4620    -0.8430 ca         1 0C2      -0.140000
      6 C6           2.1750     0.1460     0.5020 ca         1 0C2      -0.121800
      7 C7           1.3320    -1.0070     0.4160 cc         1 0C2       0.018800
      8 C8           4.0300     1.6920     0.4570 ca         1 0C2      -0.215300
      9 C9          -1.8720     2.1840     0.4220 ca         1 0C2      -0.134300
     10 C10          1.3640     1.2400     0.8790 ca         1 0C2      -0.001200
     11 C11          3.5260     0.4230     0.2760 ca         1 0C2       0.188100
     12 C12         -2.1800     3.0440    -1.7930 ca         1 0C2       0.129900
     13 C13         -3.1970     2.5130     0.6680 ca         1 0C2       0.114900
     14 C14          0.0680    -0.5690     0.7110 cd         1 0C2      -0.128300
     15 C15          3.1880    -4.2930     0.2140 cd         1 0C2      -0.244000
     16 C16          2.8050    -2.9870     0.5920 cd         1 0C2      -0.003000
     17 C17          2.4350    -4.9330    -0.7150 cc         1 0C2       0.020600
     18 C18          1.7130    -2.3690     0.0500 cc         1 0C2      -0.156200
     19 C19          0.9050    -3.0610    -0.9360 c          1 0C2       0.706700
     20 C20         -1.1520    -1.4010     0.7940 c          1 0C2       0.748300
     21 C21          5.6440     0.2550    -0.4460 c5         1 0C2       0.121400
     22 C22          5.5100     1.6540     0.1820 c5         1 0C2      -0.030400
     23 C23          6.0240     2.7600    -0.7280 c3         1 0C2      -0.082100
     24 C24         -4.3390    -1.4780     1.7160 c3         1 0C2      -0.250300
     25 N1           0.0780     0.7800     0.9930 na         1 0C2      -0.052400
     26 N2           1.3530    -4.3240    -1.2510 ns         1 0C2      -0.421100
     27 N3          -2.2370    -0.8920     0.1220 ns         1 0C2      -0.641300
     28 O1          -0.1000    -2.6040    -1.4760 o          1 0C2      -0.652500
     29 O2          -1.2040    -2.4150     1.4480 o          1 0C2      -0.543100
     30 O3          -3.5970    -3.0500    -0.2630 o          1 0C2      -0.594300
     31 O4          -4.5160    -0.7870    -0.8250 o          1 0C2      -0.594300
     32 O5           4.4440    -0.4740    -0.1250 os         1 0C2      -0.300900
     33 F1          -1.6690     3.3070    -3.0050 f          1 0C2      -0.133900
     34 F2          -3.7080     2.2430     1.8830 f          1 0C2      -0.146900
     35 S1          -3.7460    -1.6460     0.0560 s6         1 0C2       1.250600
     36 H1           3.6160     3.7370     0.9910 ha         1 0C2       0.134000
     37 H2           1.2060     3.3560     1.3430 ha         1 0C2       0.140000
     38 H4          -5.0450     3.3190    -0.0460 ha         1 0C2       0.160000
     39 H5          -0.3360     2.2230    -1.0900 ha         1 0C2       0.170000
     40 H6           4.0470    -4.7760     0.6510 ha         1 0C2       0.150000
     41 H7           3.3890    -2.4720     1.3430 ha         1 0C2       0.145000
     42 H8           2.6410    -5.9310    -1.0700 h4         1 0C2       0.150000
     43 H10          5.7200     0.3240    -1.5360 h1         1 0C2       0.059200
     44 H11          6.4980    -0.3090    -0.0740 h1         1 0C2       0.059200
     45 H12          6.0630     1.6940     1.1270 hc         1 0C2       0.064700
     46 H13          5.9040     3.7390    -0.2640 hc         1 0C2       0.039700
     47 H14          7.0860     2.6280    -0.9400 hc         1 0C2       0.039700
     48 H15          5.4860     2.7650    -1.6770 hc         1 0C2       0.039700
     49 H16         -3.6930    -2.0240     2.3980 h1         1 0C2       0.108700
     50 H17         -4.3770    -0.4240     1.9760 h1         1 0C2       0.108700
     51 H18         -5.3410    -1.9030     1.7370 h1         1 0C2       0.108700
     52 H21         -2.1070    -0.1680    -0.5770 hn         1 0C2       0.356500
     53 H9           0.8140    -4.8300    -1.9410 hn         1 0C2       0.330500
     54 C25         -1.0280     1.5560     1.5040 c3         1 0C2       0.100600
     55 H3          -4.1160     3.8140    -2.3030 ha         1 0C2       0.160000
     56 H19         -0.6220     2.3350     2.1510 h1         1 0C2       0.077200
     57 H20         -1.6340     0.9250     2.1520 h1         1 0C2       0.077200
@<TRIPOS>BOND
     1     1     2 ar  
     2     1     8 ar  
     3     1    36 1   
     4     2    10 ar  
     5     2    37 1   
     6     3     4 ar  
     7     3    12 ar  
     8     3    55 1   
     9     4    13 ar  
    10     4    38 1   
    11     5     9 ar  
    12     5    12 ar  
    13     5    39 1   
    14     6     7 1   
    15     6    10 ar  
    16     6    11 ar  
    17     7    14 2   
    18     7    18 1   
    19     8    11 ar  
    20     8    22 1   
    21     9    13 ar  
    22     9    54 1   
    23    10    25 1   
    24    11    32 1   
    25    12    33 1   
    26    13    34 1   
    27    14    20 1   
    28    14    25 1   
    29    15    16 1   
    30    15    17 2   
    31    15    40 1   
    32    16    18 2   
    33    16    41 1   
    34    17    26 1   
    35    17    42 1   
    36    18    19 1   
    37    19    26 1   
    38    19    28 2   
    39    20    27 1   
    40    20    29 2   
    41    21    22 1   
    42    21    32 1   
    43    21    43 1   
    44    21    44 1   
    45    22    23 1   
    46    22    45 1   
    47    23    46 1   
    48    23    47 1   
    49    23    48 1   
    50    24    35 1   
    51    24    49 1   
    52    24    50 1   
    53    24    51 1   
    54    25    54 1   
    55    26    53 1   
    56    27    35 1   
    57    27    52 1   
    58    30    35 2   
    59    31    35 2   
    60    54    56 1   
    61    54    57 1   
@<TRIPOS>SUBSTRUCTURE
     1 0C2         1 TEMP              0 ****  ****    0 ROOT
