@<TRIPOS>MOLECULE
0C2
   57    61     1     0     0
SMALL
No Charge or Current Charge


@<TRIPOS>ATOM
      1 C1           3.2990     2.7030     0.7830 ca         1 0C2      -0.022000
      2 C2           1.9050     2.5080     0.8700 ca         1 0C2      -0.178000
      3 C3          -3.7640     3.4560    -1.5680 ca         1 0C2      -0.114000
      4 C4          -4.1950     3.1590    -0.2630 ca         1 0C2      -0.108000
      5 C5          -1.5450     2.6040    -1.0250 ca         1 0C2      -0.122000
      6 C6           2.2010     0.1270     0.4780 ca         1 0C2      -0.121800
      7 C7           1.3480    -1.0270     0.2810 cc         1 0C2       0.018800
      8 C8           4.1220     1.5940     0.5020 ca         1 0C2      -0.215300
      9 C9          -1.9710     2.2940     0.2880 ca         1 0C2      -0.134300
     10 C10          1.3840     1.2040     0.7140 ca         1 0C2      -0.001200
     11 C11          3.5870     0.3330     0.3310 ca         1 0C2       0.188100
     12 C12         -2.4400     3.1800    -1.9420 ca         1 0C2       0.165000
     13 C13         -3.3020     2.5860     0.6580 ca         1 0C2       0.150000
     14 C14          0.0220    -0.5820     0.4370 cd         1 0C2      -0.128300
     15 C15          3.2830    -4.2530     0.2900 cd         1 0C2      -0.294000
     16 C16          2.8630    -2.9030     0.5750 cd         1 0C2      -0.053000
     17 C17          2.5700    -5.0100    -0.6130 cc         1 0C2      -0.029400
     18 C18          1.7400    -2.3840    -0.0540 cc         1 0C2      -0.156200
     19 C19          0.9990    -3.1860    -1.0720 c          1 0C2       0.564200
     20 C20         -1.1780    -1.4790     0.5410 c          1 0C2       0.681300
     21 C21          5.7160     0.1570    -0.3650 c5         1 0C2       0.144600
     22 C22          5.6100     1.5680     0.3260 c5         1 0C2      -0.030400
     23 C23          6.1910     2.7370    -0.4990 c3         1 0C2      -0.082100
     24 C24         -4.3270    -1.6420     1.9490 c3         1 0C2      -0.361100
     25 N1           0.0500     0.8200     0.7080 na         1 0C2      -0.081700
     26 N2           1.4730    -4.4610    -1.2490 ns         1 0C2      -0.354100
     27 N3          -2.3510    -0.8380     0.3000 ns         1 0C2      -0.574300
     28 O1           0.0860    -2.7680    -1.7720 o          1 0C2      -0.577000
     29 O2          -1.1340    -2.6590     0.8580 o          1 0C2      -0.543100
     30 O3          -3.8100    -2.8280    -0.3520 o          1 0C2      -0.523500
     31 O4          -4.7460    -0.4660    -0.3720 o          1 0C2      -0.523500
     32 O5           4.5160    -0.6090    -0.0170 os         1 0C2      -0.324100
     33 F1          -2.0220     3.4700    -3.1930 f          1 0C2      -0.169000
     34 F2          -3.7380     2.3060     1.9070 f          1 0C2      -0.182000
     35 S1          -3.8830    -1.4850     0.2300 s6         1 0C2       1.219800
     36 H1           3.7240     3.6970     0.9060 ha         1 0C2       0.116000
     37 H2           1.2550     3.3620     1.0390 ha         1 0C2       0.122000
     38 H4          -5.2180     3.3720     0.0360 ha         1 0C2       0.142000
     39 H5          -0.5230     2.4100    -1.3430 ha         1 0C2       0.152000
     40 H6           4.1480    -4.6760     0.7950 ha         1 0C2       0.200000
     41 H7           3.3950    -2.3250     1.3270 ha         1 0C2       0.195000
     42 H8           2.7830    -6.0370    -0.9040 h4         1 0C2       0.200000
     43 H10          5.7360     0.2640    -1.4570 h1         1 0C2       0.059200
     44 H11          6.6140    -0.3980    -0.0630 h1         1 0C2       0.059200
     45 H12          6.1200     1.5610     1.2960 hc         1 0C2       0.064700
     46 H13          6.0660     3.6920     0.0250 hc         1 0C2       0.039700
     47 H14          7.2630     2.5940    -0.6790 hc         1 0C2       0.039700
     48 H15          5.6950     2.8200    -1.4740 hc         1 0C2       0.039700
     49 H16         -3.6080    -2.3230     2.4150 h1         1 0C2       0.108700
     50 H17         -4.2800    -0.6430     2.3950 h1         1 0C2       0.108700
     51 H18         -5.3430    -2.0470     1.9890 h1         1 0C2       0.108700
     52 H21         -2.3320     0.1060    -0.0390 hn         1 0C2       0.356500
     53 H9           0.9680    -5.0080    -1.9360 hn         1 0C2       0.330500
     54 C25         -1.0130     1.6650     1.3030 c3         1 0C2       0.129900
     55 H3          -4.4490     3.9000    -2.2860 ha         1 0C2       0.142000
     56 H19         -0.5560     2.4640     1.8990 h1         1 0C2       0.077200
     57 H20         -1.5740     1.0470     2.0160 h1         1 0C2       0.077200
@<TRIPOS>BOND
     1     1     2 ar  
     2     1     8 ar  
     3     1    36 1   
     4     2    10 ar  
     5     2    37 1   
     6     3     4 ar  
     7     3    12 ar  
     8     3    55 1   
     9     4    13 ar  
    10     4    38 1   
    11     5     9 ar  
    12     5    12 ar  
    13     5    39 1   
    14     6     7 1   
    15     6    10 ar  
    16     6    11 ar  
    17     7    14 2   
    18     7    18 1   
    19     8    11 ar  
    20     8    22 1   
    21     9    13 ar  
    22     9    54 1   
    23    10    25 1   
    24    11    32 1   
    25    12    33 1   
    26    13    34 1   
    27    14    20 1   
    28    14    25 1   
    29    15    16 1   
    30    15    17 2   
    31    15    40 1   
    32    16    18 2   
    33    16    41 1   
    34    17    26 1   
    35    17    42 1   
    36    18    19 1   
    37    19    26 1   
    38    19    28 2   
    39    20    27 1   
    40    20    29 2   
    41    21    22 1   
    42    21    32 1   
    43    21    43 1   
    44    21    44 1   
    45    22    23 1   
    46    22    45 1   
    47    23    46 1   
    48    23    47 1   
    49    23    48 1   
    50    24    35 1   
    51    24    49 1   
    52    24    50 1   
    53    24    51 1   
    54    25    54 1   
    55    26    53 1   
    56    27    35 1   
    57    27    52 1   
    58    30    35 2   
    59    31    35 2   
    60    54    56 1   
    61    54    57 1   
@<TRIPOS>SUBSTRUCTURE
     1 0C2         1 TEMP              0 ****  ****    0 ROOT
