@<TRIPOS>MOLECULE
0C3
   39    41     1     0     0
SMALL
No Charge or Current Charge


@<TRIPOS>ATOM
      1 N01         -1.2060    -1.9720     0.2820 nb         1 0C3      -0.243000
      2 N02          0.4050    -0.1920     0.2080 nb         1 0C3      -0.328000
      3 N03          2.6920    -0.6380     0.4650 nu         1 0C3      -0.980900
      4 N04         -1.8170     0.2740    -0.0950 nu         1 0C3      -0.908900
      5 C05         -0.2150    -2.8560     0.4910 ca         1 0C3       0.171900
      6 C06         -0.8430    -0.6810     0.1610 ca         1 0C3       0.421900
      7 C07          1.3830    -1.0810     0.4300 ca         1 0C3       0.422900
      8 C08          1.1230    -2.4430     0.5700 ca         1 0C3      -0.358000
      9 C09          3.2990     0.6240     0.4800 ca         1 0C3       0.362000
     10 C10          2.6630     1.7100     1.1160 ca         1 0C3      -0.107000
     11 C11          3.2640     2.9760     1.1570 ca         1 0C3      -0.070000
     12 C12          4.5190     3.1670     0.5660 ca         1 0C3      -0.133000
     13 C13          5.1740     2.0940    -0.0560 ca         1 0C3      -0.056000
     14 C14          4.5790     0.8080    -0.1020 ca         1 0C3      -0.225300
     15 C15          5.3130    -0.3500    -0.7980 c3         1 0C3       0.359300
     16 C16         -3.2140     0.2760    -0.1250 ca         1 0C3       0.259000
     17 C17         -3.8630     1.2590    -0.8890 ca         1 0C3      -0.171500
     18 C18         -5.2670     1.3160    -0.9450 ca         1 0C3      -0.068500
     19 C19         -6.0550     0.3890    -0.2240 ca         1 0C3      -0.142600
     20 C20         -5.3960    -0.5870     0.5570 ca         1 0C3      -0.068500
     21 C21         -3.9910    -0.6390     0.6080 ca         1 0C3      -0.171500
     22 C22         -7.5730     0.4470    -0.2810 c          1 0C3       0.713600
     23 O23         -8.2150    -0.3730     0.3600 o          1 0C3      -0.722500
     24 O24         -8.1010     1.3120    -0.9660 o          1 0C3      -0.722500
     25 F25          6.5400    -0.0050    -1.2540 f          1 0C3      -0.116000
     26 F26          5.5010    -1.4000     0.0340 f          1 0C3      -0.116000
     27 F27          4.6250    -0.8080    -1.8680 f          1 0C3      -0.116000
     28 H1           3.3560    -1.4000     0.3580 hn         1 0C3       0.511000
     29 H2          -1.4030     1.1550    -0.3950 hn         1 0C3       0.498000
     30 H3          -0.4960    -3.9030     0.5920 h4         1 0C3       0.014100
     31 H4           1.9190    -3.1630     0.7350 ha         1 0C3       0.123000
     32 H5           1.7020     1.5720     1.6000 ha         1 0C3       0.138000
     33 H6           2.7600     3.8040     1.6500 ha         1 0C3       0.119000
     34 H7           4.9890     4.1470     0.5950 ha         1 0C3       0.117000
     35 H8           6.1500     2.2750    -0.5030 ha         1 0C3       0.126000
     36 H9          -3.2800     1.9820    -1.4520 ha         1 0C3       0.105000
     37 H10         -5.7400     2.0850    -1.5520 ha         1 0C3       0.128500
     38 H11         -5.9710    -1.3090     1.1340 ha         1 0C3       0.128500
     39 H12         -3.5200    -1.3860     1.2380 ha         1 0C3       0.105000
@<TRIPOS>BOND
     1     1     5 ar  
     2     1     6 ar  
     3     2     6 ar  
     4     2     7 ar  
     5     3     7 1   
     6     3     9 1   
     7     3    28 1   
     8     4     6 1   
     9     4    16 1   
    10     4    29 1   
    11     5     8 ar  
    12     5    30 1   
    13     7     8 ar  
    14     8    31 1   
    15     9    10 ar  
    16     9    14 ar  
    17    10    11 ar  
    18    10    32 1   
    19    11    12 ar  
    20    11    33 1   
    21    12    13 ar  
    22    12    34 1   
    23    13    14 ar  
    24    13    35 1   
    25    14    15 1   
    26    15    25 1   
    27    15    26 1   
    28    15    27 1   
    29    16    17 ar  
    30    16    21 ar  
    31    17    18 ar  
    32    17    36 1   
    33    18    19 ar  
    34    18    37 1   
    35    19    20 ar  
    36    19    22 1   
    37    20    21 ar  
    38    20    38 1   
    39    21    39 1   
    40    22    23 1   
    41    22    24 1   
@<TRIPOS>SUBSTRUCTURE
     1 0C3         1 TEMP              0 ****  ****    0 ROOT
