@<TRIPOS>MOLECULE
0C3
   39    41     1     0     0
SMALL
bcc


@<TRIPOS>ATOM
      1 N01         -1.1310    -1.9330     0.7200 nb         1 0C3      -0.769000
      2 N02          0.5600    -0.2820     0.4790 nb         1 0C3      -0.854000
      3 N03          2.7810    -0.7550     0.8660 nu         1 0C3      -0.787300
      4 N04         -1.5930     0.2620     0.0810 nu         1 0C3      -0.715300
      5 C05         -0.1780    -2.8040     1.0600 ca         1 0C3       0.500200
      6 C06         -0.7060    -0.7070     0.4450 ca         1 0C3       0.947900
      7 C07          1.4860    -1.1570     0.8260 ca         1 0C3       0.751200
      8 C08          1.1540    -2.4910     1.1370 ca         1 0C3      -0.506600
      9 C09          3.2280     0.5590     0.6430 ca         1 0C3       0.223600
     10 C10          2.7320     1.6050     1.4140 ca         1 0C3      -0.125000
     11 C11          3.1940     2.8970     1.2280 ca         1 0C3      -0.088000
     12 C12          4.1700     3.1590     0.2770 ca         1 0C3      -0.151000
     13 C13          4.6700     2.1250    -0.4980 ca         1 0C3      -0.074000
     14 C14          4.1960     0.8280    -0.3300 ca         1 0C3      -0.225300
     15 C15          4.6950    -0.2720    -1.2160 c3         1 0C3       0.723200
     16 C16         -2.9710     0.2450    -0.0890 ca         1 0C3       0.120600
     17 C17         -3.5580     1.4400    -0.5240 ca         1 0C3      -0.189500
     18 C18         -4.9220     1.5310    -0.7220 ca         1 0C3      -0.086500
     19 C19         -5.7610     0.4410    -0.4990 ca         1 0C3      -0.142600
     20 C20         -5.1700    -0.7410    -0.0650 ca         1 0C3      -0.086500
     21 C21         -3.8020    -0.8550     0.1420 ca         1 0C3      -0.189500
     22 C22         -7.2580     0.5410    -0.7280 c          1 0C3       0.924200
     23 O23         -7.9280    -0.4920    -0.5280 o          1 0C3      -0.827800
     24 O24         -7.6960     1.6490    -1.0980 o          1 0C3      -0.827800
     25 F25          5.5910     0.1590    -2.1070 f          1 0C3      -0.237300
     26 F26          5.2920    -1.2560    -0.5210 f          1 0C3      -0.237300
     27 F27          3.7010    -0.8430    -1.9110 f          1 0C3      -0.237300
     28 H1           3.4690    -1.4620     1.0730 hn         1 0C3       0.455800
     29 H2          -1.1470     1.1450    -0.1170 hn         1 0C3       0.442800
     30 H3          -0.5120    -3.8110     1.2860 h4         1 0C3       0.014100
     31 H4           1.8990    -3.2220     1.4170 ha         1 0C3       0.141000
     32 H5           1.9900     1.4010     2.1730 ha         1 0C3       0.156000
     33 H6           2.8010     3.6970     1.8400 ha         1 0C3       0.137000
     34 H7           4.5430     4.1640     0.1360 ha         1 0C3       0.135000
     35 H8           5.4250     2.3420    -1.2400 ha         1 0C3       0.144000
     36 H9          -2.9310     2.3050    -0.7100 ha         1 0C3       0.123000
     37 H10         -5.3430     2.4680    -1.0600 ha         1 0C3       0.146500
     38 H11         -5.7940    -1.6060     0.1190 ha         1 0C3       0.146500
     39 H12         -3.3850    -1.7880     0.4820 ha         1 0C3       0.123000
@<TRIPOS>BOND
     1     1     5 ar  
     2     1     6 ar  
     3     2     6 ar  
     4     2     7 ar  
     5     3     7 1   
     6     3     9 1   
     7     3    28 1   
     8     4     6 1   
     9     4    16 1   
    10     4    29 1   
    11     5     8 ar  
    12     5    30 1   
    13     7     8 ar  
    14     8    31 1   
    15     9    10 ar  
    16     9    14 ar  
    17    10    11 ar  
    18    10    32 1   
    19    11    12 ar  
    20    11    33 1   
    21    12    13 ar  
    22    12    34 1   
    23    13    14 ar  
    24    13    35 1   
    25    14    15 1   
    26    15    25 1   
    27    15    26 1   
    28    15    27 1   
    29    16    17 ar  
    30    16    21 ar  
    31    17    18 ar  
    32    17    36 1   
    33    18    19 ar  
    34    18    37 1   
    35    19    20 ar  
    36    19    22 1   
    37    20    21 ar  
    38    20    38 1   
    39    21    39 1   
    40    22    23 1   
    41    22    24 1   
@<TRIPOS>SUBSTRUCTURE
     1 0C3         1 TEMP              0 ****  ****    0 ROOT
