@<TRIPOS>MOLECULE
0C4
   36    38     1     0     0
SMALL
abcg2


@<TRIPOS>ATOM
      1 BR2          4.8430     0.3700    -1.5440 br         1 0C4      -0.109100
      2 N02          0.3210     0.2410     0.2930 nb         1 0C4      -0.327000
      3 N03         -1.3130     1.9550     0.4760 nb         1 0C4      -0.244000
      4 N04          2.5740     0.6860     0.5290 nu         1 0C4      -0.961900
      5 C05         -5.4160     0.8220    -0.0120 ca         1 0C4      -0.068500
      6 C06         -6.0540    -0.3620    -0.3640 ca         1 0C4      -0.142600
      7 C07         -5.2530    -1.4830    -0.5680 ca         1 0C4      -0.068500
      8 C08         -3.8800    -1.4200    -0.4310 ca         1 0C4      -0.171500
      9 C09         -3.2450    -0.2220    -0.0770 ca         1 0C4       0.258000
     10 C10         -4.0380     0.9090     0.1340 ca         1 0C4      -0.171500
     11 C12         -0.9350     0.7000     0.2830 ca         1 0C4       0.421900
     12 C13          1.2850     1.1140     0.5180 ca         1 0C4       0.421900
     13 C14          1.0020     2.4790     0.7310 ca         1 0C4      -0.359000
     14 C15         -0.3230     2.8230     0.6940 ca         1 0C4       0.171900
     15 C16          3.0070    -0.6360     0.3970 ca         1 0C4       0.338000
     16 C17          2.4410    -1.6610     1.1570 ca         1 0C4      -0.103000
     17 C18          2.8950    -2.9630     1.0460 ca         1 0C4      -0.084000
     18 C19          3.9410    -3.2690     0.1860 ca         1 0C4      -0.130000
     19 C20          4.5280    -2.2660    -0.5680 ca         1 0C4      -0.074000
     20 C21          4.0520    -0.9650    -0.4690 ca         1 0C4      -0.056900
     21 O25         -8.0430    -1.5460    -0.8160 o          1 0C4      -0.722500
     22 O26         -8.1970     0.6260    -0.3440 o          1 0C4      -0.722500
     23 H1          -1.4490    -1.1770    -0.1100 hn         1 0C4       0.498000
     24 H2           3.2800     1.4010     0.6070 hn         1 0C4       0.507000
     25 H3          -6.0100     1.7110     0.1580 ha         1 0C4       0.128500
     26 H4          -5.7110    -2.4240    -0.8450 ha         1 0C4       0.128500
     27 H5          -3.2820    -2.3090    -0.6020 ha         1 0C4       0.105000
     28 H6          -3.5830     1.8460     0.4100 ha         1 0C4       0.105000
     29 H7           1.7790     3.2080     0.9120 ha         1 0C4       0.122000
     30 H8          -0.6190     3.8540     0.8510 h4         1 0C4       0.014100
     31 H9           1.6420    -1.4280     1.8470 ha         1 0C4       0.138000
     32 H10          2.4390    -3.7380     1.6470 ha         1 0C4       0.118000
     33 H11          4.3060    -4.2840     0.1020 ha         1 0C4       0.114000
     34 H12          5.3450    -2.4990    -1.2370 ha         1 0C4       0.123000
     35 N01         -1.8620    -0.2690     0.0400 nu         1 0C4      -0.908900
     36 C11         -7.5620    -0.4330    -0.5210 c          1 0C4       0.713600
@<TRIPOS>BOND
     1     1    20 1   
     2     2    11 ar  
     3     2    12 ar  
     4     3    11 ar  
     5     3    14 ar  
     6     4    12 1   
     7     4    15 1   
     8     4    24 1   
     9     5     6 ar  
    10     5    10 ar  
    11     5    25 1   
    12     6     7 ar  
    13     6    36 1   
    14     7     8 ar  
    15     7    26 1   
    16     8     9 ar  
    17     8    27 1   
    18     9    10 ar  
    19     9    35 1   
    20    10    28 1   
    21    11    35 1   
    22    12    13 ar  
    23    13    14 ar  
    24    13    29 1   
    25    14    30 1   
    26    15    16 ar  
    27    15    20 ar  
    28    16    17 ar  
    29    16    31 1   
    30    17    18 ar  
    31    17    32 1   
    32    18    19 ar  
    33    18    33 1   
    34    19    20 ar  
    35    19    34 1   
    36    21    36 1   
    37    22    36 1   
    38    23    35 1   
@<TRIPOS>SUBSTRUCTURE
     1 0C4         1 TEMP              0 ****  ****    0 ROOT
