@<TRIPOS>MOLECULE
0C4
   36    38     1     0     0
SMALL
No Charge or Current Charge


@<TRIPOS>ATOM
      1 Br2          5.4060     0.5530    -0.8980 br         1 0C4      -0.109100
      2 N02          0.2150     0.1520     0.1020 nb         1 0C4      -0.327000
      3 N03         -1.3480     1.9740     0.1040 nb         1 0C4      -0.244000
      4 N04          2.5210     0.5500     0.2900 nu         1 0C4      -0.961900
      5 C05         -5.5640     0.7220     0.5390 ca         1 0C4      -0.068500
      6 C06         -6.2650    -0.2780    -0.1740 ca         1 0C4      -0.142600
      7 C07         -5.5160    -1.2640    -0.8570 ca         1 0C4      -0.068500
      8 C08         -4.1100    -1.2420    -0.8300 ca         1 0C4      -0.171500
      9 C09         -3.4210    -0.2370    -0.1350 ca         1 0C4       0.258000
     10 C10         -4.1580     0.7390     0.5600 ca         1 0C4      -0.171500
     11 C12         -1.0200     0.6700     0.0510 ca         1 0C4       0.421900
     12 C13          1.2210     1.0240     0.2530 ca         1 0C4       0.421900
     13 C14          0.9980     2.3990     0.3200 ca         1 0C4      -0.359000
     14 C15         -0.3300     2.8420     0.2430 ca         1 0C4       0.171900
     15 C16          3.1090    -0.7230     0.3700 ca         1 0C4       0.338000
     16 C17          2.4440    -1.8200     0.9560 ca         1 0C4      -0.103000
     17 C18          3.0670    -3.0790     1.0350 ca         1 0C4      -0.084000
     18 C19          4.3680    -3.2510     0.5350 ca         1 0C4      -0.130000
     19 C20          5.0490    -2.1640    -0.0350 ca         1 0C4      -0.074000
     20 C21          4.4260    -0.9050    -0.1130 ca         1 0C4      -0.056900
     21 O25         -8.3490    -1.1840    -0.8240 o          1 0C4      -0.722500
     22 O26         -8.3920     0.5750     0.4060 o          1 0C4      -0.722500
     23 H1          -1.6380    -1.1790    -0.3900 hn         1 0C4       0.498000
     24 H2           3.2040     1.2880     0.1230 hn         1 0C4       0.507000
     25 H3          -6.1080     1.4900     1.0850 ha         1 0C4       0.128500
     26 H4          -6.0210    -2.0520    -1.4110 ha         1 0C4       0.128500
     27 H5          -3.5580    -2.0120    -1.3630 ha         1 0C4       0.105000
     28 H6          -3.6550     1.5060     1.1380 ha         1 0C4       0.105000
     29 H7           1.8160     3.1060     0.4280 ha         1 0C4       0.122000
     30 H8          -0.5820     3.9010     0.2890 h4         1 0C4       0.014100
     31 H9           1.4490    -1.7030     1.3720 ha         1 0C4       0.138000
     32 H10          2.5430    -3.9170     1.4880 ha         1 0C4       0.118000
     33 H11          4.8500    -4.2240     0.5970 ha         1 0C4       0.114000
     34 H12          6.0590    -2.2960    -0.4150 ha         1 0C4       0.123000
     35 N01         -2.0230    -0.2720    -0.1310 nu         1 0C4      -0.908900
     36 C11         -7.7850    -0.2970    -0.1990 c          1 0C4       0.713600
@<TRIPOS>BOND
     1     1    20 1   
     2     2    11 ar  
     3     2    12 ar  
     4     3    11 ar  
     5     3    14 ar  
     6     4    12 1   
     7     4    15 1   
     8     4    24 1   
     9     5     6 ar  
    10     5    10 ar  
    11     5    25 1   
    12     6     7 ar  
    13     6    36 1   
    14     7     8 ar  
    15     7    26 1   
    16     8     9 ar  
    17     8    27 1   
    18     9    10 ar  
    19     9    35 1   
    20    10    28 1   
    21    11    35 1   
    22    12    13 ar  
    23    13    14 ar  
    24    13    29 1   
    25    14    30 1   
    26    15    16 ar  
    27    15    20 ar  
    28    16    17 ar  
    29    16    31 1   
    30    17    18 ar  
    31    17    32 1   
    32    18    19 ar  
    33    18    33 1   
    34    19    20 ar  
    35    19    34 1   
    36    21    36 1   
    37    22    36 1   
    38    23    35 1   
@<TRIPOS>SUBSTRUCTURE
     1 0C4         1 TEMP              0 ****  ****    0 ROOT
