@<TRIPOS>MOLECULE
0C5
   37    39     1     0     0
SMALL
No Charge or Current Charge


@<TRIPOS>ATOM
      1 O01         -7.3680     1.4980     0.8290 o          1 0C5      -0.720500
      2 C02         -6.8550     0.6070     0.1660 c          1 0C5       0.713600
      3 C03         -5.3400     0.4850     0.1590 ca         1 0C5      -0.139600
      4 C04         -4.5370     1.3820     0.9000 ca         1 0C5      -0.069000
      5 C05         -3.1360     1.2660     0.8900 ca         1 0C5      -0.168500
      6 C06         -4.6970    -0.5230    -0.5960 ca         1 0C5      -0.069000
      7 C07         -3.2950    -0.6340    -0.6000 ca         1 0C5      -0.168500
      8 C08         -2.5040     0.2530     0.1530 ca         1 0C5       0.253000
      9 N09         -1.1070     0.1920     0.1690 nu         1 0C5      -0.903900
     10 C10         -0.1670    -0.8060    -0.0440 ca         1 0C5       0.421900
     11 N11          1.1010    -0.3690    -0.0620 nb         1 0C5      -0.327000
     12 C12          2.0480    -1.2960    -0.2600 ca         1 0C5       0.416900
     13 N13          3.3750    -0.9040    -0.2610 nu         1 0C5      -0.938900
     14 C14          4.0270     0.3410    -0.2810 ca         1 0C5       0.376000
     15 C15          3.4420     1.4430    -0.9370 ca         1 0C5      -0.146000
     16 C16          4.0920     2.6880    -0.9780 ca         1 0C5      -0.057000
     17 C17          5.3440     2.8420    -0.3670 ca         1 0C5      -0.160000
     18 C18          5.9500     1.7520     0.2760 ca         1 0C5      -0.041000
     19 C19          5.3000     0.5010     0.3180 ca         1 0C5      -0.110000
     20 C20          5.9520    -0.5900     0.9870 cg         1 0C5       0.332000
     21 N21          6.4840    -1.4820     1.5200 n1         1 0C5      -0.481000
     22 C22          1.7350    -2.6470    -0.4110 ca         1 0C5      -0.354000
     23 C23          0.3790    -3.0040    -0.3710 ca         1 0C5       0.173900
     24 N24         -0.5800    -2.0790    -0.1850 nb         1 0C5      -0.238000
     25 O25         -7.5100    -0.1900    -0.4920 o          1 0C5      -0.720500
     26 H1          -4.9970     2.1740     1.4880 ha         1 0C5       0.129500
     27 H2          -2.5410     1.9680     1.4690 ha         1 0C5       0.105000
     28 H3          -5.2830    -1.2230    -1.1880 ha         1 0C5       0.129500
     29 H4          -2.8360    -1.4040    -1.2110 ha         1 0C5       0.105000
     30 H5          -0.6670     1.0570     0.4770 hn         1 0C5       0.497000
     31 H6           4.0070    -1.6920    -0.1320 hn         1 0C5       0.503000
     32 H7           2.4860     1.3340    -1.4370 ha         1 0C5       0.162000
     33 H8           3.6260     3.5290    -1.4880 ha         1 0C5       0.117000
     34 H9           5.8500     3.8050    -0.3980 ha         1 0C5       0.117000
     35 H10          6.9250     1.8810     0.7430 ha         1 0C5       0.117000
     36 H11          2.5040    -3.3990    -0.5580 ha         1 0C5       0.127000
     37 H12          0.0570    -4.0370    -0.4850 h4         1 0C5       0.018100
@<TRIPOS>BOND
     1     1     2 1   
     2     2     3 1   
     3     2    25 1   
     4     3     4 ar  
     5     3     6 ar  
     6     4     5 ar  
     7     4    26 1   
     8     5     8 ar  
     9     5    27 1   
    10     6     7 ar  
    11     6    28 1   
    12     7     8 ar  
    13     7    29 1   
    14     8     9 1   
    15     9    10 1   
    16     9    30 1   
    17    10    11 ar  
    18    10    24 ar  
    19    11    12 ar  
    20    12    13 1   
    21    12    22 ar  
    22    13    14 1   
    23    13    31 1   
    24    14    15 ar  
    25    14    19 ar  
    26    15    16 ar  
    27    15    32 1   
    28    16    17 ar  
    29    16    33 1   
    30    17    18 ar  
    31    17    34 1   
    32    18    19 ar  
    33    18    35 1   
    34    19    20 1   
    35    20    21 3   
    36    22    23 ar  
    37    22    36 1   
    38    23    24 ar  
    39    23    37 1   
@<TRIPOS>SUBSTRUCTURE
     1 0C5         1 TEMP              0 ****  ****    0 ROOT
