@<TRIPOS>MOLECULE
0C5
   37    39     1     0     0
SMALL
abcg2


@<TRIPOS>ATOM
      1 O01         -7.2950     1.7170     0.2650 o          1 0C5      -0.720500
      2 C02         -6.8250     0.5740     0.0960 c          1 0C5       0.713600
      3 C03         -5.3110     0.4580     0.0570 ca         1 0C5      -0.139600
      4 C04         -4.4960     1.5800     0.1980 ca         1 0C5      -0.069000
      5 C05         -3.1190     1.4760     0.1600 ca         1 0C5      -0.168500
      6 C06         -4.6820    -0.7690    -0.1230 ca         1 0C5      -0.069000
      7 C07         -3.3010    -0.8970    -0.1640 ca         1 0C5      -0.168500
      8 C08         -2.4950     0.2350    -0.0220 ca         1 0C5       0.253000
      9 N09         -1.1050     0.2440    -0.0520 nu         1 0C5      -0.903900
     10 C10         -0.1920    -0.7610    -0.1210 ca         1 0C5       0.421900
     11 N11          1.0770    -0.3300    -0.1040 nb         1 0C5      -0.327000
     12 C12          2.0280    -1.2390    -0.1610 ca         1 0C5       0.416900
     13 N13          3.3450    -0.8700    -0.1450 nu         1 0C5      -0.938900
     14 C14          3.9450     0.3730    -0.0980 ca         1 0C5       0.376000
     15 C15          3.2590     1.5910    -0.0680 ca         1 0C5      -0.146000
     16 C16          3.9560     2.7870    -0.0270 ca         1 0C5      -0.057000
     17 C17          5.3450     2.8260    -0.0140 ca         1 0C5      -0.160000
     18 C18          6.0420     1.6360    -0.0420 ca         1 0C5      -0.041000
     19 C19          5.3570     0.4210    -0.0830 ca         1 0C5      -0.110000
     20 C20          6.1130    -0.7830    -0.1120 cg         1 0C5       0.332000
     21 N21          6.7130    -1.7690    -0.1380 n1         1 0C5      -0.481000
     22 C22          1.7260    -2.6120    -0.2370 ca         1 0C5      -0.354000
     23 C23          0.3930    -2.9280    -0.2510 ca         1 0C5       0.173900
     24 N24         -0.5850    -2.0230    -0.1950 nb         1 0C5      -0.238000
     25 O25         -7.4720    -0.4820    -0.0460 o          1 0C5      -0.720500
     26 H1          -4.9470     2.5530     0.3430 ha         1 0C5       0.129500
     27 H2          -2.5110     2.3670     0.2740 ha         1 0C5       0.105000
     28 H3          -5.2870    -1.6590    -0.2380 ha         1 0C5       0.129500
     29 H4          -2.8550    -1.8680    -0.3060 ha         1 0C5       0.105000
     30 H5          -0.6830     1.1570     0.0220 hn         1 0C5       0.497000
     31 H6           3.9750    -1.6570    -0.1780 hn         1 0C5       0.503000
     32 H7           2.1830     1.5990    -0.0760 ha         1 0C5       0.162000
     33 H8           3.3920     3.7100    -0.0050 ha         1 0C5       0.117000
     34 H9           5.8740     3.7690     0.0180 ha         1 0C5       0.117000
     35 H10          7.1240     1.6300    -0.0340 ha         1 0C5       0.117000
     36 H11          2.4930    -3.3720    -0.2830 ha         1 0C5       0.127000
     37 H12          0.0820    -3.9650    -0.3090 h4         1 0C5       0.018100
@<TRIPOS>BOND
     1     1     2 1   
     2     2     3 1   
     3     2    25 1   
     4     3     4 ar  
     5     3     6 ar  
     6     4     5 ar  
     7     4    26 1   
     8     5     8 ar  
     9     5    27 1   
    10     6     7 ar  
    11     6    28 1   
    12     7     8 ar  
    13     7    29 1   
    14     8     9 1   
    15     9    10 1   
    16     9    30 1   
    17    10    11 ar  
    18    10    24 ar  
    19    11    12 ar  
    20    12    13 1   
    21    12    22 ar  
    22    13    14 1   
    23    13    31 1   
    24    14    15 ar  
    25    14    19 ar  
    26    15    16 ar  
    27    15    32 1   
    28    16    17 ar  
    29    16    33 1   
    30    17    18 ar  
    31    17    34 1   
    32    18    19 ar  
    33    18    35 1   
    34    19    20 1   
    35    20    21 3   
    36    22    23 ar  
    37    22    36 1   
    38    23    24 ar  
    39    23    37 1   
@<TRIPOS>SUBSTRUCTURE
     1 0C5         1 TEMP              0 ****  ****    0 ROOT
