@<TRIPOS>MOLECULE
0C6
   36    38     1     0     0
SMALL
No Charge or Current Charge


@<TRIPOS>ATOM
      1 Cl1          5.9420    -0.4550     1.0420 cl         1 0C6      -0.213000
      2 C02          5.0750     0.8550     0.2280 ca         1 0C6       0.069000
      3 C03          5.7280     2.0880     0.0570 ca         1 0C6      -0.086000
      4 C04          5.0740     3.1480    -0.5910 ca         1 0C6      -0.129000
      5 C05          3.7680     2.9710    -1.0760 ca         1 0C6      -0.089000
      6 C06          3.1120     1.7390    -0.9060 ca         1 0C6      -0.104000
      7 C07          3.7490     0.6700    -0.2390 ca         1 0C6       0.323000
      8 N08          3.1230    -0.5800    -0.0640 nu         1 0C6      -0.944900
      9 C09          1.8050    -1.0310    -0.0020 ca         1 0C6       0.405900
     10 C10          1.5260    -2.4090     0.0860 ca         1 0C6      -0.091000
     11 C12          0.1790    -2.7950     0.1800 ca         1 0C6       0.148900
     12 N13         -0.8090    -1.8790     0.1910 nb         1 0C6      -0.230000
     13 C14         -0.4340    -0.5880     0.1020 ca         1 0C6       0.418900
     14 N15         -1.4070     0.4000     0.1490 nu         1 0C6      -0.903900
     15 C16         -2.8050     0.4120     0.1190 ca         1 0C6       0.254000
     16 C17         -3.4750     1.5100     0.6790 ca         1 0C6      -0.169500
     17 C18         -4.8790     1.5790     0.6660 ca         1 0C6      -0.068500
     18 C19         -5.6460     0.5470     0.0770 ca         1 0C6      -0.140600
     19 C20         -7.1640     0.6180     0.0590 c          1 0C6       0.713600
     20 O21         -7.7870    -0.2970    -0.4620 o          1 0C6      -0.720500
     21 O22         -7.7110     1.5870     0.5660 o          1 0C6      -0.720500
     22 C23         -4.9640    -0.5480    -0.5010 ca         1 0C6      -0.068500
     23 C24         -3.5590    -0.6120    -0.4820 ca         1 0C6      -0.169500
     24 N25          0.8200    -0.1190     0.0230 nb         1 0C6      -0.321000
     25 F11          2.5130    -3.3390     0.0870 f          1 0C6      -0.185000
     26 H1           6.7420     2.2200     0.4260 ha         1 0C6       0.123000
     27 H2           5.5810     4.1020    -0.7250 ha         1 0C6       0.115000
     28 H3           3.2650     3.7870    -1.5910 ha         1 0C6       0.118000
     29 H4           2.1150     1.6190    -1.3130 ha         1 0C6       0.145000
     30 H5           3.7850    -1.3230     0.1670 hn         1 0C6       0.518000
     31 H6          -0.1130    -3.8410     0.2520 h4         1 0C6       0.031100
     32 H7          -0.9970     1.3190     0.3120 hn         1 0C6       0.500000
     33 H8          -2.9080     2.3160     1.1390 ha         1 0C6       0.105000
     34 H9          -5.3700     2.4410     1.1150 ha         1 0C6       0.129500
     35 H11         -5.5220    -1.3550    -0.9730 ha         1 0C6       0.129500
     36 H12         -3.0700    -1.4550    -0.9580 ha         1 0C6       0.105000
@<TRIPOS>BOND
     1     1     2 1   
     2     2     3 ar  
     3     2     7 ar  
     4     3     4 ar  
     5     3    26 1   
     6     4     5 ar  
     7     4    27 1   
     8     5     6 ar  
     9     5    28 1   
    10     6     7 ar  
    11     6    29 1   
    12     7     8 1   
    13     8     9 1   
    14     8    30 1   
    15     9    10 ar  
    16     9    24 ar  
    17    10    11 ar  
    18    10    25 1   
    19    11    12 ar  
    20    11    31 1   
    21    12    13 ar  
    22    13    14 1   
    23    13    24 ar  
    24    14    15 1   
    25    14    32 1   
    26    15    16 ar  
    27    15    23 ar  
    28    16    17 ar  
    29    16    33 1   
    30    17    18 ar  
    31    17    34 1   
    32    18    19 1   
    33    18    22 ar  
    34    19    20 1   
    35    19    21 1   
    36    22    23 ar  
    37    22    35 1   
    38    23    36 1   
@<TRIPOS>SUBSTRUCTURE
     1 0C6         1 TEMP              0 ****  ****    0 ROOT
