@<TRIPOS>MOLECULE
0C6
   36    38     1     0     0
SMALL
abcg2


@<TRIPOS>ATOM
      1 CL1          5.6290    -0.3910     1.3190 cl         1 0C6      -0.213000
      2 C02          4.8390     0.8800     0.4410 ca         1 0C6       0.069000
      3 C03          5.4080     2.1430     0.4390 ca         1 0C6      -0.086000
      4 C04          4.7840     3.1740    -0.2450 ca         1 0C6      -0.129000
      5 C05          3.6050     2.9240    -0.9340 ca         1 0C6      -0.089000
      6 C06          3.0490     1.6560    -0.9440 ca         1 0C6      -0.104000
      7 C07          3.6520     0.6090    -0.2460 ca         1 0C6       0.323000
      8 N08          3.1500    -0.6930    -0.2550 nu         1 0C6      -0.944900
      9 C09          1.8490    -1.0710    -0.2130 ca         1 0C6       0.405900
     10 C10          1.5170    -2.4390    -0.2300 ca         1 0C6      -0.091000
     11 C12          0.2020    -2.7850    -0.1780 ca         1 0C6       0.148900
     12 N13         -0.7730    -1.8730    -0.1150 nb         1 0C6      -0.230000
     13 C14         -0.3810    -0.6100    -0.1000 ca         1 0C6       0.418900
     14 N15         -1.2960     0.3980    -0.0350 nu         1 0C6      -0.903900
     15 C16         -2.6830     0.3870     0.0430 ca         1 0C6       0.254000
     16 C17         -3.3090     1.6370     0.1420 ca         1 0C6      -0.169500
     17 C18         -4.6850     1.7370     0.2230 ca         1 0C6      -0.068500
     18 C19         -5.4960     0.6040     0.2090 ca         1 0C6      -0.140600
     19 C20         -7.0080     0.7150     0.2960 c          1 0C6       0.713600
     20 O21         -7.6510    -0.3530     0.2810 o          1 0C6      -0.720500
     21 O22         -7.4820     1.8660     0.3740 o          1 0C6      -0.720500
     22 C23         -4.8650    -0.6310     0.1110 ca         1 0C6      -0.068500
     23 C24         -3.4850    -0.7560     0.0280 ca         1 0C6      -0.169500
     24 N25          0.8850    -0.1780    -0.1430 nb         1 0C6      -0.321000
     25 F11          2.4930    -3.3620    -0.2900 f          1 0C6      -0.185000
     26 H1           6.3300     2.3170     0.9760 ha         1 0C6       0.123000
     27 H2           5.2210     4.1630    -0.2400 ha         1 0C6       0.115000
     28 H3           3.1180     3.7170    -1.4840 ha         1 0C6       0.118000
     29 H4           2.1430     1.4750    -1.5020 ha         1 0C6       0.145000
     30 H5           3.8320    -1.4310    -0.1780 hn         1 0C6       0.518000
     31 H6          -0.0920    -3.8300    -0.1880 h4         1 0C6       0.031100
     32 H7          -0.8720     1.3140    -0.0280 hn         1 0C6       0.500000
     33 H8          -2.7040     2.5370     0.1560 ha         1 0C6       0.105000
     34 H9          -5.1370     2.7170     0.3000 ha         1 0C6       0.129500
     35 H11         -5.4670    -1.5300     0.0980 ha         1 0C6       0.129500
     36 H12         -3.0380    -1.7340    -0.0490 ha         1 0C6       0.105000
@<TRIPOS>BOND
     1     1     2 1   
     2     2     3 ar  
     3     2     7 ar  
     4     3     4 ar  
     5     3    26 1   
     6     4     5 ar  
     7     4    27 1   
     8     5     6 ar  
     9     5    28 1   
    10     6     7 ar  
    11     6    29 1   
    12     7     8 1   
    13     8     9 1   
    14     8    30 1   
    15     9    10 ar  
    16     9    24 ar  
    17    10    11 ar  
    18    10    25 1   
    19    11    12 ar  
    20    11    31 1   
    21    12    13 ar  
    22    13    14 1   
    23    13    24 ar  
    24    14    15 1   
    25    14    32 1   
    26    15    16 ar  
    27    15    23 ar  
    28    16    17 ar  
    29    16    33 1   
    30    17    18 ar  
    31    17    34 1   
    32    18    19 1   
    33    18    22 ar  
    34    19    20 1   
    35    19    21 1   
    36    22    23 ar  
    37    22    35 1   
    38    23    36 1   
@<TRIPOS>SUBSTRUCTURE
     1 0C6         1 TEMP              0 ****  ****    0 ROOT
