@<TRIPOS>MOLECULE
0C7
   39    42     1     0     0
SMALL
bcc


@<TRIPOS>ATOM
      1 CL2          6.4250     0.8580    -1.0280 cl         1 0C7      -0.115400
      2 C02          5.6140    -0.5260    -0.3670 ca         1 0C7      -0.019600
      3 C03          6.2040    -1.7720    -0.5080 ca         1 0C7      -0.098000
      4 C04          5.5670    -2.8940    -0.0050 ca         1 0C7      -0.138000
      5 C05          4.3510    -2.7520     0.6480 ca         1 0C7      -0.107000
      6 C06          3.7720    -1.5040     0.8040 ca         1 0C7      -0.127000
      7 C07          4.3890    -0.3620     0.2890 ca         1 0C7       0.172600
      8 N08          3.8680     0.9200     0.4500 nu         1 0C7      -0.746300
      9 C09          2.5650     1.3050     0.4630 ca         1 0C7       0.756200
     10 C10          2.2510     2.6620     0.6750 ca         1 0C7      -0.469600
     11 C11          0.9170     2.9740     0.6700 ca         1 0C7       0.498200
     12 N12         -0.0550     2.0770     0.4820 nb         1 0C7      -0.785000
     13 C13          0.3530     0.8350     0.2860 ca         1 0C7       0.944900
     14 N14         -0.5560    -0.1650     0.0740 nu         1 0C7      -0.733300
     15 C15         -1.9350    -0.1610     0.0330 ca         1 0C7       0.211600
     16 C16         -2.5550    -1.3850    -0.2610 ca         1 0C7      -0.183000
     17 C17         -3.9250    -1.4950    -0.3160 ca         1 0C7      -0.059500
     18 C18         -4.7370    -0.3840    -0.0790 ca         1 0C7      -0.189500
     19 C19         -6.1810    -0.5250    -0.1380 cc         1 0C7       0.474000
     20 N20         -7.0890     0.4360     0.0610 na         1 0C7      -0.167400
     21 N21         -8.3020    -0.0750    -0.0750 nc         1 0C7      -0.208800
     22 N22         -8.1420    -1.3080    -0.3460 nd         1 0C7      -0.041000
     23 N23         -6.8520    -1.6290    -0.3940 nd         1 0C7      -0.397000
     24 C24         -4.1240     0.8320     0.2110 ca         1 0C7      -0.059500
     25 C25         -2.7470     0.9550     0.2690 ca         1 0C7      -0.183000
     26 N26          1.6170     0.4080     0.2650 nb         1 0C7      -0.838000
     27 H1           7.1540    -1.8600    -1.0180 ha         1 0C7       0.149000
     28 H2           6.0210    -3.8680    -0.1230 ha         1 0C7       0.140000
     29 H3           3.8480    -3.6200     1.0540 ha         1 0C7       0.138000
     30 H4           2.8370    -1.4110     1.3330 ha         1 0C7       0.157000
     31 H5           4.5400     1.6720     0.4850 hn         1 0C7       0.457800
     32 H6           3.0110     3.4130     0.8320 ha         1 0C7       0.156000
     33 H7           0.5980     3.9980     0.8290 h4         1 0C7       0.024100
     34 H8          -0.1210    -1.0610    -0.0880 hn         1 0C7       0.457800
     35 H9          -1.9460    -2.2610    -0.4500 ha         1 0C7       0.156000
     36 H10         -4.3700    -2.4540    -0.5470 ha         1 0C7       0.141500
     37 H11         -6.9730     1.4160     0.2790 hn         1 0C7       0.334700
     38 H12         -4.7130     1.7200     0.4040 ha         1 0C7       0.141500
     39 H13         -2.3060     1.9100     0.4980 ha         1 0C7       0.156000
@<TRIPOS>BOND
     1     1     2 1   
     2     2     3 ar  
     3     2     7 ar  
     4     3     4 ar  
     5     3    27 1   
     6     4     5 ar  
     7     4    28 1   
     8     5     6 ar  
     9     5    29 1   
    10     6     7 ar  
    11     6    30 1   
    12     7     8 1   
    13     8     9 1   
    14     8    31 1   
    15     9    10 ar  
    16     9    26 ar  
    17    10    11 ar  
    18    10    32 1   
    19    11    12 ar  
    20    11    33 1   
    21    12    13 ar  
    22    13    14 1   
    23    13    26 ar  
    24    14    15 1   
    25    14    34 1   
    26    15    16 ar  
    27    15    25 ar  
    28    16    17 ar  
    29    16    35 1   
    30    17    18 ar  
    31    17    36 1   
    32    18    19 1   
    33    18    24 ar  
    34    19    20 1   
    35    19    23 2   
    36    20    21 1   
    37    20    37 1   
    38    21    22 2   
    39    22    23 1   
    40    24    25 ar  
    41    24    38 1   
    42    25    39 1   
@<TRIPOS>SUBSTRUCTURE
     1 0C7         1 TEMP              0 ****  ****    0 ROOT
