@<TRIPOS>MOLECULE
0C7
   39    42     1     0     0
SMALL
No Charge or Current Charge


@<TRIPOS>ATOM
      1 Cl2          6.6600     0.8600    -0.9290 cl         1 0C7      -0.207000
      2 C02          5.8270    -0.5250    -0.2090 ca         1 0C7       0.072000
      3 C03          6.4980    -1.7590    -0.1560 ca         1 0C7      -0.080000
      4 C04          5.8710    -2.8790     0.4140 ca         1 0C7      -0.120000
      5 C05          4.5750    -2.7610     0.9400 ca         1 0C7      -0.089000
      6 C06          3.9010    -1.5270     0.8880 ca         1 0C7      -0.109000
      7 C07          4.5100    -0.3980     0.3010 ca         1 0C7       0.311000
      8 N08          3.8610     0.8520     0.2480 nu         1 0C7      -0.939900
      9 C09          2.5380     1.2660     0.2420 ca         1 0C7       0.427900
     10 C10          2.2460     2.6270     0.3450 ca         1 0C7      -0.321000
     11 C11          0.8960     3.0040     0.2990 ca         1 0C7       0.169900
     12 N12         -0.0790     2.0880     0.1550 nb         1 0C7      -0.259000
     13 C13          0.3140     0.8040     0.0660 ca         1 0C7       0.418900
     14 N14         -0.6460    -0.1780    -0.1220 nu         1 0C7      -0.926900
     15 C15         -2.0440    -0.2040    -0.1010 ca         1 0C7       0.350000
     16 C16         -2.7070    -1.1980    -0.8330 ca         1 0C7      -0.165000
     17 C17         -4.1110    -1.2750    -0.8340 ca         1 0C7      -0.041500
     18 C18         -4.8800    -0.3570    -0.0870 ca         1 0C7      -0.189500
     19 C19         -6.3480    -0.4450    -0.0910 cc         1 0C7       0.474000
     20 N20         -7.2110     0.3750     0.5760 na         1 0C7      -0.217700
     21 N21         -8.4960     0.0040     0.3460 nc         1 0C7      -0.208800
     22 N22         -8.3980    -1.0270    -0.4490 nd         1 0C7      -0.041000
     23 N23         -7.0870    -1.3260    -0.7360 nd         1 0C7      -0.397000
     24 C24         -4.2080     0.6320     0.6650 ca         1 0C7      -0.041500
     25 C25         -2.8040     0.7020     0.6590 ca         1 0C7      -0.165000
     26 N26          1.5730     0.3480     0.0870 nb         1 0C7      -0.312000
     27 H1           7.5060    -1.8460    -0.5570 ha         1 0C7       0.131000
     28 H2           6.3920    -3.8330     0.4560 ha         1 0C7       0.122000
     29 H3           4.0920    -3.6240     1.3950 ha         1 0C7       0.120000
     30 H4           2.9110    -1.4540     1.3240 ha         1 0C7       0.139000
     31 H5           4.5070     1.6210     0.0680 hn         1 0C7       0.513000
     32 H6           3.0280     3.3710     0.4580 ha         1 0C7       0.138000
     33 H7           0.5910     4.0460     0.3730 h4         1 0C7       0.024100
     34 H8          -0.2280    -1.0610    -0.4110 hn         1 0C7       0.513000
     35 H9          -2.1360    -1.9140    -1.4170 ha         1 0C7       0.138000
     36 H10         -4.5960    -2.0540    -1.4200 ha         1 0C7       0.123500
     37 H11         -6.9710     1.1600     1.1680 hn         1 0C7       0.385000
     38 H12         -4.7620     1.3510     1.2650 ha         1 0C7       0.123500
     39 H13         -2.3140     1.4570     1.2650 ha         1 0C7       0.138000
@<TRIPOS>BOND
     1     1     2 1   
     2     2     3 ar  
     3     2     7 ar  
     4     3     4 ar  
     5     3    27 1   
     6     4     5 ar  
     7     4    28 1   
     8     5     6 ar  
     9     5    29 1   
    10     6     7 ar  
    11     6    30 1   
    12     7     8 1   
    13     8     9 1   
    14     8    31 1   
    15     9    10 ar  
    16     9    26 ar  
    17    10    11 ar  
    18    10    32 1   
    19    11    12 ar  
    20    11    33 1   
    21    12    13 ar  
    22    13    14 1   
    23    13    26 ar  
    24    14    15 1   
    25    14    34 1   
    26    15    16 ar  
    27    15    25 ar  
    28    16    17 ar  
    29    16    35 1   
    30    17    18 ar  
    31    17    36 1   
    32    18    19 1   
    33    18    24 ar  
    34    19    20 1   
    35    19    23 2   
    36    20    21 1   
    37    20    37 1   
    38    21    22 2   
    39    22    23 1   
    40    24    25 ar  
    41    24    38 1   
    42    25    39 1   
@<TRIPOS>SUBSTRUCTURE
     1 0C7         1 TEMP              0 ****  ****    0 ROOT
