@<TRIPOS>MOLECULE
0C8
   40    42     1     0     0
SMALL
abcg2


@<TRIPOS>ATOM
      1 N01         -1.4850    -1.9930     0.6430 nb         1 0C8      -0.241000
      2 N02          0.1600    -0.2800     0.6360 nb         1 0C8      -0.329000
      3 N03          2.3750    -0.7270     1.1280 nu         1 0C8      -0.951900
      4 N04         -1.9820     0.2300     0.1470 nu         1 0C8      -0.907900
      5 C05         -0.5240    -2.8600     0.9720 ca         1 0C8       0.171900
      6 C06         -1.0880    -0.7380     0.4890 ca         1 0C8       0.421900
      7 C07          1.0930    -1.1510     0.9690 ca         1 0C8       0.419900
      8 C08          0.7890    -2.5150     1.1540 ca         1 0C8      -0.355000
      9 C09          2.8610     0.5730     1.0000 ca         1 0C8       0.337000
     10 C10          2.1790     1.6920     1.4810 ca         1 0C8      -0.107000
     11 C11          2.7360     2.9550     1.3710 ca         1 0C8      -0.080000
     12 C12          3.9920     3.1320     0.8080 ca         1 0C8      -0.132000
     13 C13          4.6920     2.0320     0.3400 ca         1 0C8      -0.084000
     14 C14          4.1160     0.7770     0.4220 ca         1 0C8       0.029100
     15 C15          4.7560    -0.6390    -1.3230 c3         1 0C8       0.511000
     16 C16         -3.3480     0.1880    -0.1070 ca         1 0C8       0.257000
     17 C17         -3.9440     1.3970    -0.4910 ca         1 0C8      -0.171000
     18 C18         -5.2960     1.4660    -0.7640 ca         1 0C8      -0.068500
     19 C19         -6.1130     0.3410    -0.6670 ca         1 0C8      -0.142600
     20 C20         -5.5130    -0.8530    -0.2830 ca         1 0C8      -0.068500
     21 C21         -4.1560    -0.9470    -0.0040 ca         1 0C8      -0.171000
     22 C22         -7.5990     0.4190    -0.9720 c          1 0C8       0.713600
     23 O23         -8.2540    -0.6350    -0.8490 o          1 0C8      -0.721500
     24 O24         -8.0400     1.5330    -1.3210 o          1 0C8      -0.721500
     25 O25          4.8270    -0.3350    -0.0180 os         1 0C8      -0.411100
     26 F26          5.3160     0.2910    -2.0980 f          1 0C8      -0.108333
     27 F27          5.4060    -1.7760    -1.5050 f          1 0C8      -0.108333
     28 F28          3.5030    -0.7920    -1.7500 f          1 0C8      -0.108333
     29 H1           3.0590    -1.4540     1.2700 hn         1 0C8       0.509000
     30 H2          -1.5570     1.1400     0.0520 hn         1 0C8       0.498000
     31 H3          -0.8360    -3.8910     1.0980 h4         1 0C8       0.015100
     32 H4           1.5410    -3.2440     1.4210 ha         1 0C8       0.123000
     33 H5           1.2140     1.5700     1.9470 ha         1 0C8       0.148000
     34 H6           2.1870     3.8080     1.7480 ha         1 0C8       0.120000
     35 H7           4.4310     4.1180     0.7380 ha         1 0C8       0.118000
     36 H8           5.6810     2.1480    -0.0820 ha         1 0C8       0.128000
     37 H9          -3.3330     2.2890    -0.5750 ha         1 0C8       0.105000
     38 H10         -5.7260     2.4130    -1.0600 ha         1 0C8       0.128500
     39 H11         -6.1210    -1.7440    -0.1960 ha         1 0C8       0.128500
     40 H12         -3.7300    -1.8910     0.2900 ha         1 0C8       0.105000
@<TRIPOS>BOND
     1     1     5 ar  
     2     1     6 ar  
     3     2     6 ar  
     4     2     7 ar  
     5     3     7 1   
     6     3     9 1   
     7     3    29 1   
     8     4     6 1   
     9     4    16 1   
    10     4    30 1   
    11     5     8 ar  
    12     5    31 1   
    13     7     8 ar  
    14     8    32 1   
    15     9    10 ar  
    16     9    14 ar  
    17    10    11 ar  
    18    10    33 1   
    19    11    12 ar  
    20    11    34 1   
    21    12    13 ar  
    22    12    35 1   
    23    13    14 ar  
    24    13    36 1   
    25    14    25 1   
    26    15    25 1   
    27    15    26 1   
    28    15    27 1   
    29    15    28 1   
    30    16    17 ar  
    31    16    21 ar  
    32    17    18 ar  
    33    17    37 1   
    34    18    19 ar  
    35    18    38 1   
    36    19    20 ar  
    37    19    22 1   
    38    20    21 ar  
    39    20    39 1   
    40    21    40 1   
    41    22    23 1   
    42    22    24 1   
@<TRIPOS>SUBSTRUCTURE
     1 0C8         1 TEMP              0 ****  ****    0 ROOT
