@<TRIPOS>MOLECULE
0C8
   40    42     1     0     0
SMALL
No Charge or Current Charge


@<TRIPOS>ATOM
      1 N01         -1.6890    -2.0280     0.2400 nb         1 0C8      -0.241000
      2 N02         -0.1050    -0.2240     0.2660 nb         1 0C8      -0.329000
      3 N03          2.1910    -0.6490     0.5310 nu         1 0C8      -0.951900
      4 N04         -2.3300     0.2230    -0.0420 nu         1 0C8      -0.907900
      5 C05         -0.6860    -2.9060     0.4210 ca         1 0C8       0.171900
      6 C06         -1.3440    -0.7280     0.1820 ca         1 0C8       0.421900
      7 C07          0.8860    -1.1050     0.4570 ca         1 0C8       0.419900
      8 C08          0.6450    -2.4770     0.5340 ca         1 0C8      -0.355000
      9 C09          2.8170     0.6080     0.5870 ca         1 0C8       0.337000
     10 C10          2.1470     1.7700     1.0220 ca         1 0C8      -0.107000
     11 C11          2.8150     3.0040     1.0730 ca         1 0C8      -0.080000
     12 C12          4.1640     3.0860     0.6990 ca         1 0C8      -0.132000
     13 C13          4.8540     1.9360     0.2820 ca         1 0C8      -0.084000
     14 C14          4.1900     0.6860     0.2280 ca         1 0C8       0.029100
     15 C15          6.2180    -0.5650    -0.5660 c3         1 0C8       0.511000
     16 C16         -3.7270     0.2040    -0.0880 ca         1 0C8       0.257000
     17 C17         -4.3830     1.2090    -0.8150 ca         1 0C8      -0.171000
     18 C18         -5.7870     1.2460    -0.8840 ca         1 0C8      -0.068500
     19 C19         -6.5680     0.2780    -0.2120 ca         1 0C8      -0.142600
     20 C20         -5.9010    -0.7220     0.5330 ca         1 0C8      -0.068500
     21 C21         -4.4960    -0.7540     0.5970 ca         1 0C8      -0.171000
     22 C22         -8.0860     0.3150    -0.2830 c          1 0C8       0.713600
     23 O23         -8.7210    -0.5430     0.3150 o          1 0C8      -0.721500
     24 O24         -8.6200     1.2000    -0.9360 o          1 0C8      -0.721500
     25 O25          4.8340    -0.4880    -0.1660 os         1 0C8      -0.411100
     26 F26          7.0570    -0.1850     0.4260 f          1 0C8      -0.108333
     27 F27          6.5480    -1.8330    -0.8940 f          1 0C8      -0.108333
     28 F28          6.4790     0.2020    -1.6500 f          1 0C8      -0.108333
     29 H1           2.8750    -1.3910     0.3900 hn         1 0C8       0.509000
     30 H2          -1.9270     1.1220    -0.3000 hn         1 0C8       0.498000
     31 H3          -0.9520    -3.9610     0.4700 h4         1 0C8       0.015100
     32 H4           1.4500    -3.1910     0.6760 ha         1 0C8       0.123000
     33 H5           1.1120     1.7250     1.3400 ha         1 0C8       0.148000
     34 H6           2.2880     3.8950     1.4090 ha         1 0C8       0.120000
     35 H7           4.6810     4.0430     0.7400 ha         1 0C8       0.118000
     36 H8           5.9000     2.0390     0.0100 ha         1 0C8       0.128000
     37 H9          -3.8060     1.9650    -1.3410 ha         1 0C8       0.105000
     38 H10         -6.2660     2.0340    -1.4620 ha         1 0C8       0.128500
     39 H11         -6.4700    -1.4760     1.0720 ha         1 0C8       0.128500
     40 H12         -4.0200    -1.5200     1.1990 ha         1 0C8       0.105000
@<TRIPOS>BOND
     1     1     5 ar  
     2     1     6 ar  
     3     2     6 ar  
     4     2     7 ar  
     5     3     7 1   
     6     3     9 1   
     7     3    29 1   
     8     4     6 1   
     9     4    16 1   
    10     4    30 1   
    11     5     8 ar  
    12     5    31 1   
    13     7     8 ar  
    14     8    32 1   
    15     9    10 ar  
    16     9    14 ar  
    17    10    11 ar  
    18    10    33 1   
    19    11    12 ar  
    20    11    34 1   
    21    12    13 ar  
    22    12    35 1   
    23    13    14 ar  
    24    13    36 1   
    25    14    25 1   
    26    15    25 1   
    27    15    26 1   
    28    15    27 1   
    29    15    28 1   
    30    16    17 ar  
    31    16    21 ar  
    32    17    18 ar  
    33    17    37 1   
    34    18    19 ar  
    35    18    38 1   
    36    19    20 ar  
    37    19    22 1   
    38    20    21 ar  
    39    20    39 1   
    40    21    40 1   
    41    22    23 1   
    42    22    24 1   
@<TRIPOS>SUBSTRUCTURE
     1 0C8         1 TEMP              0 ****  ****    0 ROOT
