@<TRIPOS>MOLECULE
0C9
   38    40     1     0     0
SMALL
No Charge or Current Charge


@<TRIPOS>ATOM
      1 N01          1.6650     0.8000     0.4530 nu         1 0C9      -0.935900
      2 N02         -0.6030     0.9260     0.1930 nb         1 0C9      -0.349000
      3 N03          0.6160    -0.8700    -0.8350 nb         1 0C9      -0.271000
      4 C05          4.9960    -0.2760    -0.8610 ca         1 0C9      -0.068000
      5 C06          5.8410     0.1050     0.2070 ca         1 0C9      -0.167600
      6 C07          5.2580     0.7190     1.3380 ca         1 0C9      -0.068000
      7 C08          3.8700     0.9390     1.3980 ca         1 0C9      -0.187000
      8 C09          3.0340     0.5430     0.3440 ca         1 0C9       0.299000
      9 C10          3.6080    -0.0540    -0.7930 ca         1 0C9      -0.187000
     10 C12          0.5180     0.2530    -0.1000 ca         1 0C9       0.419900
     11 C13         -1.7400     0.4210    -0.3000 ca         1 0C9       0.454900
     12 C14         -1.7580    -0.7240    -1.1020 ca         1 0C9      -0.297000
     13 C15         -0.5320    -1.3570    -1.3430 ca         1 0C9       0.151900
     14 C16         -4.2420     0.8990    -0.1760 ca         1 0C9       0.306000
     15 C17         -5.0180     1.9260    -0.7450 ca         1 0C9      -0.162000
     16 C18         -6.3930     1.7520    -0.9700 ca         1 0C9      -0.134000
     17 C19         -7.0070     0.5430    -0.6190 ca         1 0C9      -0.154000
     18 C20         -6.2510    -0.4820    -0.0290 ca         1 0C9      -0.085000
     19 C21         -4.8680    -0.3110     0.2070 ca         1 0C9      -0.137600
     20 C22         -4.1210    -1.4100     0.9070 c          1 0C9       0.715600
     21 O23         -4.1680    -2.5300     0.4150 o          1 0C9      -0.705500
     22 O24         -3.6550    -1.1840     2.0160 o          1 0C9      -0.705500
     23 O25          7.8030    -0.6680    -0.8620 o          1 0C9      -0.736500
     24 O26          8.0350     0.2160     1.0800 o          1 0C9      -0.736500
     25 H1           1.4410     1.5030     1.1540 hn         1 0C9       0.491000
     26 H2          -2.6600     2.1110     0.2440 hn         1 0C9       0.494000
     27 H3           5.4110    -0.7410    -1.7530 ha         1 0C9       0.118000
     28 H4           5.8780     1.0310     2.1760 ha         1 0C9       0.118000
     29 H5           3.4460     1.4130     2.2790 ha         1 0C9       0.106500
     30 H6           2.9940    -0.3360    -1.6410 ha         1 0C9       0.106500
     31 H7          -2.6770    -1.1060    -1.5310 ha         1 0C9       0.142000
     32 H8          -0.4630    -2.2560    -1.9530 h4         1 0C9       0.001100
     33 H9          -4.5490     2.8630    -1.0330 ha         1 0C9       0.093000
     34 H10         -6.9780     2.5510    -1.4200 ha         1 0C9       0.082000
     35 H11         -8.0720     0.4030    -0.7920 ha         1 0C9       0.084000
     36 H12         -6.7390    -1.4090     0.2620 ha         1 0C9       0.123000
     37 C11          7.3410    -0.1340     0.1360 c          1 0C9       0.717600
     38 N04         -2.8770     1.1510    -0.0160 nu         1 0C9      -0.937900
@<TRIPOS>BOND
     1     1     8 1   
     2     1    10 1   
     3     1    25 1   
     4     2    10 ar  
     5     2    11 ar  
     6     3    10 ar  
     7     3    13 ar  
     8     4     5 ar  
     9     4     9 ar  
    10     4    27 1   
    11     5     6 ar  
    12     5    37 1   
    13     6     7 ar  
    14     6    28 1   
    15     7     8 ar  
    16     7    29 1   
    17     8     9 ar  
    18     9    30 1   
    19    11    12 ar  
    20    11    38 1   
    21    12    13 ar  
    22    12    31 1   
    23    13    32 1   
    24    14    15 ar  
    25    14    19 ar  
    26    14    38 1   
    27    15    16 ar  
    28    15    33 1   
    29    16    17 ar  
    30    16    34 1   
    31    17    18 ar  
    32    17    35 1   
    33    18    19 ar  
    34    18    36 1   
    35    19    20 1   
    36    20    21 1   
    37    20    22 1   
    38    23    37 1   
    39    24    37 1   
    40    26    38 1   
@<TRIPOS>SUBSTRUCTURE
     1 0C9         1 TEMP              0 ****  ****    0 ROOT
