@<TRIPOS>MOLECULE
0C9
   38    40     1     0     0
SMALL
bcc


@<TRIPOS>ATOM
      1 N01          1.6260     0.8530     0.5020 nu         1 0C9      -0.742300
      2 N02         -0.6200     0.9870     0.3080 nb         1 0C9      -0.875000
      3 N03          0.5740    -0.6150    -0.9730 nb         1 0C9      -0.797000
      4 C05          4.8430    -0.6190    -0.6370 ca         1 0C9      -0.086000
      5 C06          5.7440     0.0110     0.2140 ca         1 0C9      -0.167600
      6 C07          5.2210     0.9070     1.1460 ca         1 0C9      -0.086000
      7 C08          3.8650     1.1570     1.2200 ca         1 0C9      -0.205000
      8 C09          2.9650     0.5180     0.3560 ca         1 0C9       0.160600
      9 C10          3.4770    -0.3830    -0.5820 ca         1 0C9      -0.205000
     10 C12          0.4940     0.3730    -0.0930 ca         1 0C9       0.945900
     11 C13         -1.7730     0.5770    -0.2090 ca         1 0C9       0.783200
     12 C14         -1.8060    -0.4600    -1.1640 ca         1 0C9      -0.445600
     13 C15         -0.5940    -1.0050    -1.4930 ca         1 0C9       0.480200
     14 C16         -4.2070     0.9180    -0.0870 ca         1 0C9       0.167600
     15 C17         -5.0270     1.9190    -0.6060 ca         1 0C9      -0.180000
     16 C18         -6.3590     1.6660    -0.8920 ca         1 0C9      -0.152000
     17 C19         -6.8690     0.3890    -0.7060 ca         1 0C9      -0.172000
     18 C20         -6.0440    -0.6110    -0.2120 ca         1 0C9      -0.103000
     19 C21         -4.7180    -0.3650     0.1410 ca         1 0C9      -0.137600
     20 C22         -3.9380    -1.4860     0.8270 c          1 0C9       0.926200
     21 O23         -4.1460    -2.6350     0.3960 o          1 0C9      -0.810800
     22 O24         -3.2080    -1.1550     1.7770 o          1 0C9      -0.810800
     23 O25          7.6090    -1.0940    -0.7170 o          1 0C9      -0.841800
     24 O26          7.9650     0.3720     0.9220 o          1 0C9      -0.841800
     25 H1           1.4370     1.5760     1.1800 hn         1 0C9       0.435800
     26 H2          -2.6970     2.0590     0.7710 hn         1 0C9       0.438800
     27 H3           5.2180    -1.3190    -1.3730 ha         1 0C9       0.136000
     28 H4           5.8880     1.4170     1.8280 ha         1 0C9       0.136000
     29 H5           3.4880     1.8570     1.9580 ha         1 0C9       0.124500
     30 H6           2.8140    -0.8940    -1.2600 ha         1 0C9       0.124500
     31 H7          -2.7190    -0.8090    -1.6210 ha         1 0C9       0.160000
     32 H8          -0.5440    -1.8040    -2.2250 h4         1 0C9       0.001100
     33 H9          -4.6090     2.9020    -0.7880 ha         1 0C9       0.111000
     34 H10         -6.9860     2.4590    -1.2790 ha         1 0C9       0.100000
     35 H11         -7.9020     0.1720    -0.9450 ha         1 0C9       0.102000
     36 H12         -6.4420    -1.6070    -0.0660 ha         1 0C9       0.141000
     37 C11          7.2350    -0.2610     0.1330 c          1 0C9       0.928200
     38 N04         -2.8700     1.2550     0.1860 nu         1 0C9      -0.744300
@<TRIPOS>BOND
     1     1     8 1   
     2     1    10 1   
     3     1    25 1   
     4     2    10 ar  
     5     2    11 ar  
     6     3    10 ar  
     7     3    13 ar  
     8     4     5 ar  
     9     4     9 ar  
    10     4    27 1   
    11     5     6 ar  
    12     5    37 1   
    13     6     7 ar  
    14     6    28 1   
    15     7     8 ar  
    16     7    29 1   
    17     8     9 ar  
    18     9    30 1   
    19    11    12 ar  
    20    11    38 1   
    21    12    13 ar  
    22    12    31 1   
    23    13    32 1   
    24    14    15 ar  
    25    14    19 ar  
    26    14    38 1   
    27    15    16 ar  
    28    15    33 1   
    29    16    17 ar  
    30    16    34 1   
    31    17    18 ar  
    32    17    35 1   
    33    18    19 ar  
    34    18    36 1   
    35    19    20 1   
    36    20    21 1   
    37    20    22 1   
    38    23    37 1   
    39    24    37 1   
    40    26    38 1   
@<TRIPOS>SUBSTRUCTURE
     1 0C9         1 TEMP              0 ****  ****    0 ROOT
