@<TRIPOS>MOLECULE
0CA
   73    77     1     0     0
SMALL
No Charge or Current Charge


@<TRIPOS>ATOM
      1 C13          1.2470     2.0360     1.7990 ca         1 0CA      -0.039600
      2 C30         -5.1540    -3.2070     1.1690 ca         1 0CA      -0.162900
      3 C14          2.1590     1.0790     1.2750 ca         1 0CA      -0.210000
      4 C16         -2.0250     2.9400     0.2630 cc         1 0CA      -0.132300
      5 C21         -3.3700     3.6060     0.0710 c3         1 0CA       0.009500
      6 C22         -2.7040     0.0100    -1.6080 ca         1 0CA      -0.110300
      7 C23         -2.7070    -0.9170    -2.6680 ca         1 0CA      -0.095000
      8 C24         -3.3130    -2.1740    -2.5140 ca         1 0CA      -0.118000
      9 C25         -3.3260    -0.3370    -0.3880 ca         1 0CA      -0.057000
     10 C26         -3.9340    -1.5970    -0.2290 ca         1 0CA      -0.047000
     11 C27         -3.9260    -2.5180    -1.2960 ca         1 0CA      -0.029000
     12 C11          1.8750     0.3660     0.0780 ca         1 0CA       0.143100
     13 N9           7.9140     0.0750    -2.5450 n2         1 0CA      -0.845100
     14 C2           6.1700    -2.1920    -0.2480 c6         1 0CA       0.207300
     15 C3           4.6710    -2.0490    -0.5980 c6         1 0CA      -0.123900
     16 C4           4.0960    -0.7310    -0.0200 c6         1 0CA       0.185300
     17 C5           4.9630     0.4790    -0.4700 c6         1 0CA      -0.123900
     18 C6           6.4520     0.2410    -0.1270 c6         1 0CA       0.207300
     19 C31         -4.5500    -1.9400     0.9900 ca         1 0CA      -0.028000
     20 N33         -6.1300    -2.6670     3.3380 n2         1 0CA      -0.815100
     21 N34         -6.0370    -4.8400     2.7620 nv         1 0CA      -1.078200
     22 C29         -5.1530    -4.1130     0.0800 ca         1 0CA      -0.098000
     23 C28         -4.5390    -3.7720    -1.1370 ca         1 0CA      -0.115000
     24 N15         -1.4580     1.9600    -0.5800 na         1 0CA      -0.110700
     25 C38         -4.0260     4.0080     1.4100 c3         1 0CA      -0.083100
     26 C39         -3.2620     4.8110    -0.8870 c3         1 0CA      -0.083100
     27 C17         -1.0800     3.1020     1.2680 cd         1 0CA      -0.146200
     28 C18          0.0570     2.2330     1.0640 ca         1 0CA      -0.097800
     29 C35          1.5630     2.7940     3.0860 c          1 0CA       0.711600
     30 O36          2.7380     2.9430     3.3970 o          1 0CA      -0.717500
     31 O37          0.6420     3.1990     3.7820 o          1 0CA      -0.717500
     32 C19         -0.2220     1.5480    -0.0880 ca         1 0CA      -0.031200
     33 C12          0.6680     0.5970    -0.6060 ca         1 0CA      -0.212000
     34 O10          2.7270    -0.5820    -0.4580 os         1 0CA      -0.373100
     35 N1           6.9120    -1.0170    -0.7840 nh         1 0CA      -0.737600
     36 C8           7.5840    -2.3110    -2.8360 c3         1 0CA      -0.186400
     37 H1           3.0780     0.8970     1.8230 ha         1 0CA       0.136000
     38 H2          -4.0480     2.8810    -0.3970 hc         1 0CA       0.037700
     39 H3          -2.2370    -0.6630    -3.6160 ha         1 0CA       0.105000
     40 H4          -3.3060    -2.8790    -3.3420 ha         1 0CA       0.104000
     41 H5          -3.3390     0.3700     0.4380 ha         1 0CA       0.152000
     42 H9           6.2680    -2.2240     0.8480 h1         1 0CA       0.057700
     43 H10          6.5680    -3.1470    -0.6180 h1         1 0CA       0.057700
     44 H11          4.5390    -2.0710    -1.6880 hc         1 0CA       0.061450
     45 H12          4.1150    -2.9050    -0.1940 hc         1 0CA       0.061450
     46 H13          4.1180    -0.8180     1.0750 h1         1 0CA       0.053700
     47 H14          4.8540     0.6360    -1.5510 hc         1 0CA       0.061450
     48 H15          4.6230     1.4020     0.0170 hc         1 0CA       0.061450
     49 H16          7.0590     1.1120    -0.4150 h1         1 0CA       0.057700
     50 H17          6.5460     0.1460     0.9650 h1         1 0CA       0.057700
     51 H19         -4.5520    -1.2190     1.8050 ha         1 0CA       0.148000
     52 H20         -6.7410    -3.1110     4.0320 hn         1 0CA       0.365400
     53 H21         -5.5270    -5.4940     2.1810 hn         1 0CA       0.455000
     54 H22         -6.0750    -5.0760     3.7470 hn         1 0CA       0.455000
     55 H23         -5.6370    -5.0840     0.1620 ha         1 0CA       0.109000
     56 H24         -4.5470    -4.4840    -1.9600 ha         1 0CA       0.106000
     57 H25         -1.2490     1.2900    -2.5580 h1         1 0CA       0.056700
     58 H26         -2.7860     2.0700    -2.2090 h1         1 0CA       0.056700
     59 H27         -3.4400     4.7830     1.9190 hc         1 0CA       0.031867
     60 H28         -5.0360     4.3990     1.2430 hc         1 0CA       0.031867
     61 H29         -4.1040     3.1400     2.0760 hc         1 0CA       0.031867
     62 H30         -2.6050     5.5830    -0.4670 hc         1 0CA       0.031867
     63 H31         -2.8490     4.5010    -1.8550 hc         1 0CA       0.031867
     64 H32         -4.2480     5.2560    -1.0660 hc         1 0CA       0.031867
     65 H33         -1.1920     3.7920     2.1000 ha         1 0CA       0.231000
     66 H35          0.4410     0.0470    -1.5150 ha         1 0CA       0.105000
     67 H37          8.0690    -2.1590    -3.8070 hc         1 0CA       0.047367
     68 H38          8.1890    -3.0380    -2.2820 hc         1 0CA       0.047367
     69 H39          6.6020    -2.7560    -3.0300 hc         1 0CA       0.047367
     70 H6           8.3020    -0.1240    -3.4750 hn         1 0CA       0.370400
     71 C20         -2.0420     1.3740    -1.8050 c3         1 0CA       0.128900
     72 C7           7.4550    -1.0150    -2.0660 c2         1 0CA       0.620200
     73 C32         -5.8290    -3.5390     2.4660 ce         1 0CA       0.657800
@<TRIPOS>BOND
     1     1     3 ar  
     2     1    28 ar  
     3     1    29 1   
     4     2    19 ar  
     5     2    22 ar  
     6     2    73 1   
     7     3    12 ar  
     8     3    37 1   
     9     4     5 1   
    10     4    24 1   
    11     4    27 2   
    12     5    25 1   
    13     5    26 1   
    14     5    38 1   
    15     6     7 ar  
    16     6     9 ar  
    17     6    71 1   
    18     7     8 ar  
    19     7    39 1   
    20     8    11 ar  
    21     8    40 1   
    22     9    10 ar  
    23     9    41 1   
    24    10    11 ar  
    25    10    19 ar  
    26    11    23 ar  
    27    12    33 ar  
    28    12    34 1   
    29    13    70 1   
    30    13    72 2   
    31    14    15 1   
    32    14    35 1   
    33    14    42 1   
    34    14    43 1   
    35    15    16 1   
    36    15    44 1   
    37    15    45 1   
    38    16    17 1   
    39    16    34 1   
    40    16    46 1   
    41    17    18 1   
    42    17    47 1   
    43    17    48 1   
    44    18    35 1   
    45    18    49 1   
    46    18    50 1   
    47    19    51 1   
    48    20    52 1   
    49    20    73 2   
    50    21    53 1   
    51    21    54 1   
    52    21    73 1   
    53    22    23 ar  
    54    22    55 1   
    55    23    56 1   
    56    24    32 1   
    57    24    71 1   
    58    25    59 1   
    59    25    60 1   
    60    25    61 1   
    61    26    62 1   
    62    26    63 1   
    63    26    64 1   
    64    27    28 1   
    65    27    65 1   
    66    28    32 ar  
    67    29    30 1   
    68    29    31 1   
    69    32    33 ar  
    70    33    66 1   
    71    35    72 1   
    72    36    67 1   
    73    36    68 1   
    74    36    69 1   
    75    36    72 1   
    76    57    71 1   
    77    58    71 1   
@<TRIPOS>SUBSTRUCTURE
     1 0CA         1 TEMP              0 ****  ****    0 ROOT
