@<TRIPOS>MOLECULE
0CA
   73    77     1     0     0
SMALL
bcc


@<TRIPOS>ATOM
      1 C13          1.0940     2.1340     1.6820 ca         1 0CA      -0.039600
      2 C30         -4.4010    -3.3500     1.1920 ca         1 0CA      -0.162900
      3 C14          1.9930     1.2180     1.1490 ca         1 0CA      -0.228000
      4 C16         -2.0980     3.0150     0.1400 cc         1 0CA      -0.132300
      5 C21         -3.4210     3.6570    -0.1430 c3         1 0CA       0.009500
      6 C22         -2.8990     0.2750    -1.6560 ca         1 0CA      -0.110300
      7 C23         -3.5580    -0.3310    -2.7550 ca         1 0CA      -0.113000
      8 C24         -4.2530    -1.4960    -2.6040 ca         1 0CA      -0.136000
      9 C25         -2.9660    -0.3170    -0.4250 ca         1 0CA      -0.075000
     10 C26         -3.6740    -1.5300    -0.2380 ca         1 0CA      -0.047000
     11 C27         -4.3270    -2.1320    -1.3420 ca         1 0CA      -0.029000
     12 C11          1.7440     0.5460    -0.0560 ca         1 0CA       0.143100
     13 N9           7.7460    -0.2350    -2.1330 n2         1 0CA      -0.845100
     14 C2           5.6860    -2.3470    -0.0680 c6         1 0CA       0.207300
     15 C3           4.2750    -2.0200    -0.5540 c6         1 0CA      -0.123900
     16 C4           3.8360    -0.6640    -0.0210 c6         1 0CA       0.162100
     17 C5           4.8670     0.4090    -0.3540 c6         1 0CA      -0.123900
     18 C6           6.2470    -0.0230     0.1340 c6         1 0CA       0.207300
     19 C31         -3.7360    -2.1600     1.0220 ca         1 0CA      -0.046000
     20 N33         -4.3450    -3.2470     3.5740 n2         1 0CA      -0.815100
     21 N34         -4.5910    -5.3450     2.5290 nv         1 0CA      -0.967800
     22 C29         -5.0550    -3.9410     0.0850 ca         1 0CA      -0.116000
     23 C28         -5.0220    -3.3440    -1.1450 ca         1 0CA      -0.133000
     24 N15         -1.5210     2.1240    -0.7470 na         1 0CA      -0.081400
     25 C38         -4.0790     4.1650     1.1350 c3         1 0CA      -0.083100
     26 C39         -3.2710     4.8000    -1.1550 c3         1 0CA      -0.083100
     27 C17         -1.2520     3.2070     1.1930 cd         1 0CA      -0.096200
     28 C18         -0.0950     2.3880     0.9810 ca         1 0CA      -0.097800
     29 C35          1.4320     2.8220     2.9970 c          1 0CA       0.922200
     30 O36          2.5160     2.5160     3.5320 o          1 0CA      -0.822800
     31 O37          0.5980     3.6390     3.4340 o          1 0CA      -0.822800
     32 C19         -0.3140     1.7140    -0.2420 ca         1 0CA      -0.031200
     33 C12          0.5810     0.7940    -0.7720 ca         1 0CA      -0.230000
     34 O10          2.5700    -0.3850    -0.5980 os         1 0CA      -0.349900
     35 N1           6.6240    -1.3030    -0.4370 nh         1 0CA      -0.737600
     36 C8           7.4780    -2.6720    -2.2820 c3         1 0CA      -0.186400
     37 H1           2.9010     1.0360     1.7060 ha         1 0CA       0.154000
     38 H2          -4.0870     2.9030    -0.5780 hc         1 0CA       0.037700
     39 H3          -3.5040     0.1410    -3.7290 ha         1 0CA       0.123000
     40 H4          -4.7530    -1.9460    -3.4530 ha         1 0CA       0.122000
     41 H5          -2.4750     0.1300     0.4310 ha         1 0CA       0.170000
     42 H9           5.6890    -2.4370     1.0230 h1         1 0CA       0.057700
     43 H10          6.0030    -3.3140    -0.4510 h1         1 0CA       0.057700
     44 H11          4.2590    -2.0100    -1.6490 hc         1 0CA       0.061450
     45 H12          3.5820    -2.7970    -0.2210 hc         1 0CA       0.061450
     46 H13          3.7420    -0.7480     1.0700 h1         1 0CA       0.053700
     47 H14          4.8960     0.5640    -1.4360 hc         1 0CA       0.061450
     48 H15          4.5970     1.3640     0.1040 hc         1 0CA       0.061450
     49 H16          6.9960     0.7230    -0.1190 h1         1 0CA       0.057700
     50 H17          6.2440    -0.1260     1.2240 h1         1 0CA       0.057700
     51 H19         -3.2350    -1.7020     1.8660 ha         1 0CA       0.166000
     52 H20         -4.3350    -3.8050     4.4230 hn         1 0CA       0.365400
     53 H21         -4.2550    -5.8610     1.7320 hn         1 0CA       0.399800
     54 H22         -4.4580    -5.8290     3.4030 hn         1 0CA       0.399800
     55 H23         -5.6090    -4.8630     0.2090 ha         1 0CA       0.127000
     56 H24         -5.5360    -3.8000    -1.9820 ha         1 0CA       0.124000
     57 H25         -1.3700     1.3740    -2.6640 h1         1 0CA       0.056700
     58 H26         -2.8110     2.2880    -2.3610 h1         1 0CA       0.056700
     59 H27         -3.4940     4.9640     1.5930 hc         1 0CA       0.031867
     60 H28         -5.0680     4.5680     0.9150 hc         1 0CA       0.031867
     61 H29         -4.1970     3.3680     1.8710 hc         1 0CA       0.031867
     62 H30         -2.6610     5.6020    -0.7340 hc         1 0CA       0.031867
     63 H31         -2.7940     4.4760    -2.0800 hc         1 0CA       0.031867
     64 H32         -4.2470     5.2140    -1.4120 hc         1 0CA       0.031867
     65 H33         -1.4290     3.8610     2.0270 ha         1 0CA       0.181000
     66 H35          0.3880     0.2700    -1.7010 ha         1 0CA       0.123000
     67 H37          8.1500    -2.5860    -3.1320 hc         1 0CA       0.047367
     68 H38          7.9020    -3.3990    -1.5880 hc         1 0CA       0.047367
     69 H39          6.5330    -3.0790    -2.6470 hc         1 0CA       0.047367
     70 H6           8.2660    -0.4360    -2.9780 hn         1 0CA       0.370400
     71 C20         -2.1410     1.5550    -1.9100 c3         1 0CA       0.099600
     72 C7           7.2900    -1.3220    -1.6370 c2         1 0CA       0.620200
     73 C32         -4.4280    -3.9890     2.5370 ce         1 0CA       0.657800
@<TRIPOS>BOND
     1     1     3 ar  
     2     1    28 ar  
     3     1    29 1   
     4     2    19 ar  
     5     2    22 ar  
     6     2    73 1   
     7     3    12 ar  
     8     3    37 1   
     9     4     5 1   
    10     4    24 1   
    11     4    27 2   
    12     5    25 1   
    13     5    26 1   
    14     5    38 1   
    15     6     7 ar  
    16     6     9 ar  
    17     6    71 1   
    18     7     8 ar  
    19     7    39 1   
    20     8    11 ar  
    21     8    40 1   
    22     9    10 ar  
    23     9    41 1   
    24    10    11 ar  
    25    10    19 ar  
    26    11    23 ar  
    27    12    33 ar  
    28    12    34 1   
    29    13    70 1   
    30    13    72 2   
    31    14    15 1   
    32    14    35 1   
    33    14    42 1   
    34    14    43 1   
    35    15    16 1   
    36    15    44 1   
    37    15    45 1   
    38    16    17 1   
    39    16    34 1   
    40    16    46 1   
    41    17    18 1   
    42    17    47 1   
    43    17    48 1   
    44    18    35 1   
    45    18    49 1   
    46    18    50 1   
    47    19    51 1   
    48    20    52 1   
    49    20    73 2   
    50    21    53 1   
    51    21    54 1   
    52    21    73 1   
    53    22    23 ar  
    54    22    55 1   
    55    23    56 1   
    56    24    32 1   
    57    24    71 1   
    58    25    59 1   
    59    25    60 1   
    60    25    61 1   
    61    26    62 1   
    62    26    63 1   
    63    26    64 1   
    64    27    28 1   
    65    27    65 1   
    66    28    32 ar  
    67    29    30 1   
    68    29    31 1   
    69    32    33 ar  
    70    33    66 1   
    71    35    72 1   
    72    36    67 1   
    73    36    68 1   
    74    36    69 1   
    75    36    72 1   
    76    57    71 1   
    77    58    71 1   
@<TRIPOS>SUBSTRUCTURE
     1 0CA         1 TEMP              0 ****  ****    0 ROOT
