@<TRIPOS>MOLECULE
0CB
   68    71     1     0     0
SMALL
abcg2


@<TRIPOS>ATOM
      1 C13         -4.3400    -4.1110     0.7700 ca         1 0CB      -0.101000
      2 C14         -3.5240    -5.1270     1.1830 ca         1 0CB      -0.103000
      3 C16         -1.6380    -4.1080     0.0910 ca         1 0CB      -0.039000
      4 C1          -4.6500    -1.9880    -0.4660 ca         1 0CB      -0.102000
      5 C2          -4.1200    -0.9720    -1.2110 ca         1 0CB      -0.080000
      6 C3          -2.7420    -0.9520    -1.5420 ca         1 0CB      -0.110300
      7 C4          -1.9420    -1.9830    -1.1280 ca         1 0CB      -0.086000
      8 C5          -2.4580    -3.0490    -0.3530 ca         1 0CB      -0.055000
      9 C6          -3.8330    -3.0480    -0.0110 ca         1 0CB      -0.021000
     10 O36         -3.9320     2.4580    -1.9380 o          1 0CB      -0.547500
     11 S32         -2.8260     2.5070    -0.9900 s6         1 0CB       1.213100
     12 O38         -2.0620     3.7360    -0.8370 o          1 0CB      -0.547500
     13 C34         -3.4090     1.9960     0.6170 c3         1 0CB      -0.446400
     14 C53         -4.5360     2.9040     1.1790 c          1 0CB       0.763000
     15 O57         -5.0930     2.4420     2.1850 o          1 0CB      -0.698000
     16 O54         -4.7480     3.9740     0.5930 o          1 0CB      -0.698000
     17 N30         -1.7500     1.3420    -1.4840 nh         1 0CB      -0.815300
     18 C28         -2.1680     0.2080    -2.3140 c3         1 0CB       0.283100
     19 C15         -2.1500    -5.1380     0.8390 ca         1 0CB      -0.162900
     20 N26         -1.8720    -7.4260     1.5470 nv         1 0CB      -1.077200
     21 N24         -0.0030    -5.9970     1.4210 n2         1 0CB      -0.830100
     22 C40         -0.4590     1.3240    -0.8910 ca         1 0CB       0.240000
     23 C46         -0.1900     0.5910     0.2620 ca         1 0CB      -0.060500
     24 C45          1.0860     0.5520     0.7910 ca         1 0CB      -0.174500
     25 C44          2.1280     1.2520     0.1780 ca         1 0CB       0.138100
     26 C43          1.8630     1.9930    -0.9730 ca         1 0CB      -0.174500
     27 C42          0.5780     2.0220    -1.4940 ca         1 0CB      -0.060500
     28 O59          3.3290     1.1580     0.7760 os         1 0CB      -0.352100
     29 C61          4.4790     1.7720     0.2020 c6         1 0CB       0.185300
     30 C67          5.0090     0.9850    -0.9920 c6         1 0CB      -0.126400
     31 C66          6.3300     1.5970    -1.4550 c6         1 0CB       0.202300
     32 N65          7.3060     1.6180    -0.3820 nh         1 0CB      -0.781600
     33 C74          8.1450     0.5450    -0.1800 c2         1 0CB       0.624200
     34 C76          9.0140     0.6050     1.0480 c3         1 0CB      -0.137400
     35 N82          8.2950    -0.4650    -0.9510 n2         1 0CB      -0.840100
     36 C64          6.8310     2.4250     0.7310 c6         1 0CB       0.202300
     37 C63          5.5290     1.8620     1.2990 c6         1 0CB      -0.126400
     38 H1          -5.3870    -4.1100     1.0460 ha         1 0CB       0.115000
     39 H2          -3.9380    -5.9170     1.7960 ha         1 0CB       0.110000
     40 H3          -0.5880    -4.1080    -0.1740 ha         1 0CB       0.132000
     41 H4          -5.7050    -1.9920    -0.2210 ha         1 0CB       0.122000
     42 H5          -4.7620    -0.1720    -1.5610 ha         1 0CB       0.147000
     43 H6          -0.8880    -1.9910    -1.3870 ha         1 0CB       0.114000
     44 H7          -3.7450     0.9620     0.5320 h1         1 0CB       0.077700
     45 H8          -2.5490     2.0090     1.2920 h1         1 0CB       0.077700
     46 H10         -1.2770    -0.1120    -2.8540 h1         1 0CB       0.062200
     47 H11         -2.8760     0.5610    -3.0620 h1         1 0CB       0.062200
     48 H12         -2.7240    -7.6430     1.0560 hn         1 0CB       0.456000
     49 H13         -1.2850    -8.2300     1.7040 hn         1 0CB       0.456000
     50 H14          0.5050    -6.8360     1.6860 hn         1 0CB       0.361400
     51 H15         -0.9820     0.0420     0.7540 ha         1 0CB       0.129000
     52 H16          1.2850    -0.0210     1.6880 ha         1 0CB       0.117000
     53 H17          2.6330     2.5560    -1.4810 ha         1 0CB       0.117000
     54 H18          0.3830     2.5930    -2.3920 ha         1 0CB       0.129000
     55 H19          4.2360     2.7940    -0.1150 h1         1 0CB       0.046700
     56 H20          5.1650    -0.0580    -0.7030 hc         1 0CB       0.064200
     57 H21          4.2980     0.9900    -1.8200 hc         1 0CB       0.064200
     58 H22          6.7160     1.0750    -2.3270 h1         1 0CB       0.053950
     59 H23          6.1670     2.6290    -1.7790 h1         1 0CB       0.053950
     60 H24          8.4310     0.4950     1.9640 hc         1 0CB       0.053367
     61 H25          9.7310    -0.2110     1.0090 hc         1 0CB       0.053367
     62 H26          9.5580     1.5470     1.1160 hc         1 0CB       0.053367
     63 H27          7.6590    -0.4630    -1.7410 hn         1 0CB       0.374400
     64 H28          7.5840     2.4980     1.5110 h1         1 0CB       0.053950
     65 H29          6.6690     3.4440     0.3680 h1         1 0CB       0.053950
     66 H30          5.1740     2.5020     2.1090 hc         1 0CB       0.064200
     67 H31          5.7150     0.8680     1.7180 hc         1 0CB       0.064200
     68 C22         -1.2500    -6.2400     1.2810 ce         1 0CB       0.664800
@<TRIPOS>BOND
     1     1     2 ar  
     2     1     9 ar  
     3     1    38 1   
     4     2    19 ar  
     5     2    39 1   
     6     3     8 ar  
     7     3    19 ar  
     8     3    40 1   
     9     4     5 ar  
    10     4     9 ar  
    11     4    41 1   
    12     5     6 ar  
    13     5    42 1   
    14     6     7 ar  
    15     6    18 1   
    16     7     8 ar  
    17     7    43 1   
    18     8     9 ar  
    19    10    11 2   
    20    11    12 2   
    21    11    13 1   
    22    11    17 1   
    23    13    14 1   
    24    13    44 1   
    25    13    45 1   
    26    14    15 1   
    27    14    16 1   
    28    17    18 1   
    29    17    22 1   
    30    18    46 1   
    31    18    47 1   
    32    19    68 1   
    33    20    48 1   
    34    20    49 1   
    35    20    68 1   
    36    21    50 1   
    37    21    68 2   
    38    22    23 ar  
    39    22    27 ar  
    40    23    24 ar  
    41    23    51 1   
    42    24    25 ar  
    43    24    52 1   
    44    25    26 ar  
    45    25    28 1   
    46    26    27 ar  
    47    26    53 1   
    48    27    54 1   
    49    28    29 1   
    50    29    30 1   
    51    29    37 1   
    52    29    55 1   
    53    30    31 1   
    54    30    56 1   
    55    30    57 1   
    56    31    32 1   
    57    31    58 1   
    58    31    59 1   
    59    32    33 1   
    60    32    36 1   
    61    33    34 1   
    62    33    35 2   
    63    34    60 1   
    64    34    61 1   
    65    34    62 1   
    66    35    63 1   
    67    36    37 1   
    68    36    64 1   
    69    36    65 1   
    70    37    66 1   
    71    37    67 1   
@<TRIPOS>SUBSTRUCTURE
     1 0CB         1 TEMP              0 ****  ****    0 ROOT
