@<TRIPOS>MOLECULE
0CB
   68    71     1     0     0
SMALL
No Charge or Current Charge


@<TRIPOS>ATOM
      1 C13         -4.0040    -4.1860     0.9410 ca         1 0CB      -0.101000
      2 C14         -3.0900    -5.2050     1.2600 ca         1 0CB      -0.103000
      3 C16         -1.3760    -4.0720    -0.0410 ca         1 0CB      -0.039000
      4 C1          -4.5240    -2.0890    -0.1930 ca         1 0CB      -0.102000
      5 C2          -4.1220    -1.0110    -1.0000 ca         1 0CB      -0.080000
      6 C3          -2.8040    -0.9420    -1.4910 ca         1 0CB      -0.110300
      7 C4          -1.8930    -1.9700    -1.1720 ca         1 0CB      -0.086000
      8 C5          -2.2920    -3.0510    -0.3630 ca         1 0CB      -0.055000
      9 C6          -3.6110    -3.1100     0.1270 ca         1 0CB      -0.021000
     10 O36         -4.2600     2.3710    -1.9260 o          1 0CB      -0.547500
     11 S32         -3.0230     2.6460    -1.1870 s6         1 0CB       1.213100
     12 O38         -2.3150     3.9140    -1.3860 o          1 0CB      -0.547500
     13 C34         -3.3120     2.4110     0.5310 c3         1 0CB      -0.446400
     14 C53         -4.3440     3.3950     0.9540 c          1 0CB       0.763000
     15 O57         -5.5000     3.0110     1.0140 o          1 0CB      -0.698000
     16 O54         -3.9600     4.4730     1.3740 o          1 0CB      -0.698000
     17 N30         -1.8960     1.4000    -1.5850 nh         1 0CB      -0.815300
     18 C28         -2.3590     0.2330    -2.3560 c3         1 0CB       0.283100
     19 C15         -1.7640    -5.1720     0.7600 ca         1 0CB      -0.162900
     20 N26         -1.2280    -7.4360     1.5170 nv         1 0CB      -1.077200
     21 N24          0.4870    -6.0950     0.9590 n2         1 0CB      -0.830100
     22 C40         -0.6320     1.4040    -0.9760 ca         1 0CB       0.240000
     23 C46         -0.3990     0.6820     0.2090 ca         1 0CB      -0.060500
     24 C45          0.8740     0.6820     0.8060 ca         1 0CB      -0.174500
     25 C44          1.9330     1.3980     0.2250 ca         1 0CB       0.138100
     26 C43          1.7020     2.1330    -0.9600 ca         1 0CB      -0.174500
     27 C42          0.4260     2.1280    -1.5530 ca         1 0CB      -0.060500
     28 O59          3.1550     1.3600     0.8710 os         1 0CB      -0.352100
     29 C61          4.3700     1.8370     0.2530 c6         1 0CB       0.185300
     30 C67          4.8200     0.8950    -0.8980 c6         1 0CB      -0.126400
     31 C66          6.1910     1.3370    -1.4570 c6         1 0CB       0.202300
     32 N65          7.1970     1.3280    -0.3520 nh         1 0CB      -0.781600
     33 C74          7.9510     0.1990    -0.0460 c2         1 0CB       0.624200
     34 C76          8.5510     0.0210     1.3320 c3         1 0CB      -0.137400
     35 N82          8.2650    -0.5790    -1.0030 n2         1 0CB      -0.840100
     36 C64          6.8310     2.3290     0.6890 c6         1 0CB       0.202300
     37 C63          5.4790     1.9360     1.3290 c6         1 0CB      -0.126400
     38 H1          -5.0180    -4.2340     1.3330 ha         1 0CB       0.115000
     39 H2          -3.4200    -6.0120     1.9090 ha         1 0CB       0.110000
     40 H3          -0.3600    -4.0110    -0.4240 ha         1 0CB       0.132000
     41 H4          -5.5440    -2.1270     0.1830 ha         1 0CB       0.122000
     42 H5          -4.8370    -0.2260    -1.2400 ha         1 0CB       0.147000
     43 H6          -0.8730    -1.9210    -1.5460 ha         1 0CB       0.114000
     44 H7          -3.6700     1.3880     0.6760 h1         1 0CB       0.077700
     45 H8          -2.3730     2.5840     1.0620 h1         1 0CB       0.077700
     46 H10         -1.5410    -0.1050    -3.0060 h1         1 0CB       0.062200
     47 H11         -3.1730     0.5030    -3.0410 h1         1 0CB       0.062200
     48 H12         -2.2140    -7.5890     1.3420 hn         1 0CB       0.456000
     49 H13         -0.6290    -8.2310     1.3330 hn         1 0CB       0.456000
     50 H14          0.9520    -6.8710     1.4420 hn         1 0CB       0.361400
     51 H15         -1.2100     0.1240     0.6680 ha         1 0CB       0.129000
     52 H16          1.0410     0.1220     1.7220 ha         1 0CB       0.117000
     53 H17          2.4880     2.7130    -1.4330 ha         1 0CB       0.117000
     54 H18          0.2510     2.6900    -2.4660 ha         1 0CB       0.129000
     55 H19          4.2020     2.8510    -0.1390 h1         1 0CB       0.046700
     56 H20          4.8850    -0.1380    -0.5330 hc         1 0CB       0.064200
     57 H21          4.0820     0.8950    -1.7100 hc         1 0CB       0.064200
     58 H22          6.4800     0.7020    -2.3060 h1         1 0CB       0.053950
     59 H23          6.0890     2.3580    -1.8580 h1         1 0CB       0.053950
     60 H24          7.7790     0.0230     2.1080 hc         1 0CB       0.053367
     61 H25          9.0870    -0.9320     1.4110 hc         1 0CB       0.053367
     62 H26          9.2690     0.8180     1.5530 hc         1 0CB       0.053367
     63 H27          7.8290    -0.1940    -1.8450 hn         1 0CB       0.374400
     64 H28          7.6100     2.4360     1.4580 h1         1 0CB       0.053950
     65 H29          6.7190     3.3210     0.2260 h1         1 0CB       0.053950
     66 H30          5.1980     2.6820     2.0830 hc         1 0CB       0.064200
     67 H31          5.5760     0.9760     1.8530 hc         1 0CB       0.064200
     68 C22         -0.7650    -6.2340     1.1130 ce         1 0CB       0.664800
@<TRIPOS>BOND
     1     1     2 ar  
     2     1     9 ar  
     3     1    38 1   
     4     2    19 ar  
     5     2    39 1   
     6     3     8 ar  
     7     3    19 ar  
     8     3    40 1   
     9     4     5 ar  
    10     4     9 ar  
    11     4    41 1   
    12     5     6 ar  
    13     5    42 1   
    14     6     7 ar  
    15     6    18 1   
    16     7     8 ar  
    17     7    43 1   
    18     8     9 ar  
    19    10    11 2   
    20    11    12 2   
    21    11    13 1   
    22    11    17 1   
    23    13    14 1   
    24    13    44 1   
    25    13    45 1   
    26    14    15 1   
    27    14    16 1   
    28    17    18 1   
    29    17    22 1   
    30    18    46 1   
    31    18    47 1   
    32    19    68 1   
    33    20    48 1   
    34    20    49 1   
    35    20    68 1   
    36    21    50 1   
    37    21    68 2   
    38    22    23 ar  
    39    22    27 ar  
    40    23    24 ar  
    41    23    51 1   
    42    24    25 ar  
    43    24    52 1   
    44    25    26 ar  
    45    25    28 1   
    46    26    27 ar  
    47    26    53 1   
    48    27    54 1   
    49    28    29 1   
    50    29    30 1   
    51    29    37 1   
    52    29    55 1   
    53    30    31 1   
    54    30    56 1   
    55    30    57 1   
    56    31    32 1   
    57    31    58 1   
    58    31    59 1   
    59    32    33 1   
    60    32    36 1   
    61    33    34 1   
    62    33    35 2   
    63    34    60 1   
    64    34    61 1   
    65    34    62 1   
    66    35    63 1   
    67    36    37 1   
    68    36    64 1   
    69    36    65 1   
    70    37    66 1   
    71    37    67 1   
@<TRIPOS>SUBSTRUCTURE
     1 0CB         1 TEMP              0 ****  ****    0 ROOT
