@<TRIPOS>MOLECULE
0CC
   59    64     1     0     0
SMALL
No Charge or Current Charge


@<TRIPOS>ATOM
      1 CAA         12.0710    26.6630    21.7870 ce         1 0CC      -0.302200
      2 CAB         11.4190    25.9220    20.6740 c          1 0CC       0.570300
      3 CAC          9.8580    25.9100    20.6200 c6         1 0CC      -0.133000
      4 CAD          9.2330    26.2430    22.0370 c6         1 0CC      -0.039700
      5 CAE          9.8920    27.4200    22.8340 c6         1 0CC      -0.006800
      6 CAF         11.4100    27.3360    22.7540 c2         1 0CC      -0.146200
      7 CAG          7.6430    26.3410    22.0370 c6         1 0CC      -0.066400
      8 CAH          7.0110    26.8940    23.3570 c6         1 0CC      -0.062400
      9 CAI          7.8990    26.8600    24.6480 c5         1 0CC      -0.021000
     10 CAJ          9.4420    27.2230    24.3620 c5         1 0CC      -0.057700
     11 CAK          9.5110    28.8450    22.3070 c3         1 0CC      -0.081100
     12 CAM          9.4480    26.9020    19.4770 c3         1 0CC      -0.082100
     13 CAN          9.3920    24.4860    20.1520 c3         1 0CC      -0.082100
     14 CAO          8.0120    25.4720    25.4310 c5         1 0CC      -0.043800
     15 CAP          9.2630    25.7240    26.3430 c5         1 0CC      -0.137000
     16 CAQ         10.2610    26.1880    25.2490 c5         1 0CC      -0.066400
     17 CAR          6.8630    25.3350    26.3930 ce         1 0CC      -0.246400
     18 CAS          6.5440    26.3110    27.2610 c2         1 0CC      -0.099200
     19 CAT          7.4630    27.5190    27.1180 c6         1 0CC      -0.133800
     20 CAU          8.9120    26.9540    27.3430 c          1 0CC       0.586100
     21 CAV          9.7730    24.5130    27.1750 c3         1 0CC      -0.077100
     22 CAX          7.2770    27.9390    25.6270 c6         1 0CC      -0.065400
     23 CAY          7.0700    28.6430    28.1210 c3         1 0CC      -0.070100
     24 CAZ          7.9930    24.1320    24.6210 c5         1 0CC       0.175600
     25 CBB          6.3180    23.9650    26.2380 c          1 0CC       0.679300
     26 OAL         12.1040    25.3720    19.8190 o          1 0CC      -0.517100
     27 OAW          9.5620    27.3030    28.3400 o          1 0CC      -0.499100
     28 OBA          7.0580    23.2650    25.3220 os         1 0CC      -0.428100
     29 OBC          5.3740    23.4990    26.8590 o          1 0CC      -0.485000
     30 H1          13.1600    26.6430    21.7750 ha         1 0CC       0.200000
     31 H2           9.4680    25.3590    22.6400 hc         1 0CC       0.046700
     32 H3          11.9660    27.8690    23.5290 ha         1 0CC       0.179000
     33 H4           7.2260    26.9630    21.2180 hc         1 0CC       0.046200
     34 H5           7.2250    25.3470    21.8370 hc         1 0CC       0.046200
     35 H6           6.7210    27.9350    23.1590 hc         1 0CC       0.047200
     36 H7           6.0620    26.3760    23.5520 hc         1 0CC       0.047200
     37 H8           9.6670    28.2030    24.7980 hc         1 0CC       0.056700
     38 H9           9.7720    29.6200    23.0370 hc         1 0CC       0.040700
     39 H10         10.0620    29.1050    21.3990 hc         1 0CC       0.040700
     40 H11          8.4450    28.9580    22.0890 hc         1 0CC       0.040700
     41 H12          9.8120    27.9170    19.6470 hc         1 0CC       0.043200
     42 H13          9.8730    26.5860    18.5160 hc         1 0CC       0.043200
     43 H14          8.3640    26.9510    19.3310 hc         1 0CC       0.043200
     44 H15          9.6770    23.7150    20.8780 hc         1 0CC       0.043200
     45 H16          8.3050    24.4330    20.0220 hc         1 0CC       0.043200
     46 H17          9.8350    24.2050    19.1890 hc         1 0CC       0.043200
     47 H18         10.6170    25.3430    24.6490 hc         1 0CC       0.062200
     48 H19         11.1570    26.6470    25.6840 hc         1 0CC       0.062200
     49 H21          5.7530    26.2580    28.0140 ha         1 0CC       0.213000
     50 H23          9.0120    24.1690    27.8860 hc         1 0CC       0.050367
     51 H24         10.0450    23.6610    26.5410 hc         1 0CC       0.050367
     52 H25         10.6650    24.7810    27.7520 hc         1 0CC       0.050367
     53 H26          7.7110    28.9320    25.4460 hc         1 0CC       0.057700
     54 H27          6.2000    28.0610    25.4390 hc         1 0CC       0.057700
     55 H28          7.1250    28.2920    29.1590 hc         1 0CC       0.048367
     56 H29          7.7350    29.5100    28.0260 hc         1 0CC       0.048367
     57 H30          6.0450    28.9920    27.9450 hc         1 0CC       0.048367
     58 H31          7.6040    24.2570    23.6090 h1         1 0CC       0.069700
     59 H32          8.9730    23.6440    24.5450 h1         1 0CC       0.069700
@<TRIPOS>BOND
     1     1     2 1   
     2     1     6 2   
     3     1    30 1   
     4     2     3 1   
     5     2    26 2   
     6     3     4 1   
     7     3    12 1   
     8     3    13 1   
     9     4     5 1   
    10     4     7 1   
    11     4    31 1   
    12     5     6 1   
    13     5    10 1   
    14     5    11 1   
    15     6    32 1   
    16     7     8 1   
    17     7    33 1   
    18     7    34 1   
    19     8     9 1   
    20     8    35 1   
    21     8    36 1   
    22     9    10 1   
    23     9    14 1   
    24     9    22 1   
    25    10    16 1   
    26    10    37 1   
    27    11    38 1   
    28    11    39 1   
    29    11    40 1   
    30    12    41 1   
    31    12    42 1   
    32    12    43 1   
    33    13    44 1   
    34    13    45 1   
    35    13    46 1   
    36    14    15 1   
    37    14    17 1   
    38    14    24 1   
    39    15    16 1   
    40    15    20 1   
    41    15    21 1   
    42    16    47 1   
    43    16    48 1   
    44    17    18 2   
    45    17    25 1   
    46    18    19 1   
    47    18    49 1   
    48    19    20 1   
    49    19    22 1   
    50    19    23 1   
    51    20    27 2   
    52    21    50 1   
    53    21    51 1   
    54    21    52 1   
    55    22    53 1   
    56    22    54 1   
    57    23    55 1   
    58    23    56 1   
    59    23    57 1   
    60    24    28 1   
    61    24    58 1   
    62    24    59 1   
    63    25    28 1   
    64    25    29 2   
@<TRIPOS>SUBSTRUCTURE
     1 0CC         1 TEMP              0 ****  ****    0 ROOT
