@<TRIPOS>MOLECULE
0CC
   59    64     1     0     0
SMALL
bcc


@<TRIPOS>ATOM
      1 CAA         11.9880    26.6540    21.9300 ce         1 0CC      -0.252200
      2 CAB         11.3640    25.7390    20.9660 c          1 0CC       0.570300
      3 CAC          9.8560    25.8570    20.7560 c6         1 0CC      -0.133000
      4 CAD          9.1940    26.2270    22.1070 c6         1 0CC      -0.039700
      5 CAE          9.7890    27.4290    22.8520 c6         1 0CC      -0.006800
      6 CAF         11.2810    27.4230    22.7590 c2         1 0CC      -0.096200
      7 CAG          7.6700    26.3380    22.0470 c6         1 0CC      -0.066400
      8 CAH          7.0300    26.8690    23.3460 c6         1 0CC      -0.062400
      9 CAI          7.9050    26.8910    24.6050 c5         1 0CC      -0.021000
     10 CAJ          9.4020    27.2940    24.3470 c5         1 0CC      -0.057700
     11 CAK          9.3250    28.8100    22.3480 c3         1 0CC      -0.081100
     12 CAM          9.6800    26.8950    19.6350 c3         1 0CC      -0.082100
     13 CAN          9.2990    24.5210    20.2610 c3         1 0CC      -0.082100
     14 CAO          7.9820    25.5210    25.3780 c5         1 0CC      -0.043800
     15 CAP          9.2620    25.7670    26.2100 c5         1 0CC      -0.137000
     16 CAQ         10.2340    26.2920    25.1560 c5         1 0CC      -0.066400
     17 CAR          6.8510    25.3130    26.3220 ce         1 0CC      -0.246400
     18 CAS          6.6150    26.2430    27.2390 c2         1 0CC      -0.049200
     19 CAT          7.4950    27.4510    27.0800 c6         1 0CC      -0.133800
     20 CAU          8.9240    26.9080    27.1830 c          1 0CC       0.586100
     21 CAV          9.7930    24.5780    26.9970 c3         1 0CC      -0.077100
     22 CAX          7.2930    27.8940    25.6060 c6         1 0CC      -0.065400
     23 CAY          7.2020    28.5620    28.0670 c3         1 0CC      -0.070100
     24 CAZ          7.9450    24.2150    24.5680 c5         1 0CC       0.152400
     25 CBB          6.3010    23.9680    26.1690 c          1 0CC       0.754800
     26 OAL         12.0500    24.9760    20.3140 o          1 0CC      -0.517100
     27 OAW          9.7340    27.3440    27.9620 o          1 0CC      -0.499100
     28 OBA          6.9940    23.3470    25.2100 os         1 0CC      -0.404900
     29 OBC          5.4060    23.4310    26.7670 o          1 0CC      -0.560500
     30 H1          13.0720    26.6920    21.9320 ha         1 0CC       0.150000
     31 H2           9.4270    25.3610    22.7420 hc         1 0CC       0.046700
     32 H3          11.8070    28.1060    23.4210 ha         1 0CC       0.129000
     33 H4           7.3770    26.9980    21.2280 hc         1 0CC       0.046200
     34 H5           7.2480    25.3640    21.7990 hc         1 0CC       0.046200
     35 H6           6.6810    27.8890    23.1740 hc         1 0CC       0.047200
     36 H7           6.1210    26.3040    23.5740 hc         1 0CC       0.047200
     37 H8           9.5740    28.2820    24.7860 hc         1 0CC       0.056700
     38 H9           9.8200    29.5940    22.9230 hc         1 0CC       0.040700
     39 H10          9.5660    28.9730    21.3010 hc         1 0CC       0.040700
     40 H11          8.2530    28.9560    22.4670 hc         1 0CC       0.040700
     41 H12         10.2270    27.8190    19.8170 hc         1 0CC       0.043200
     42 H13         10.0440    26.4840    18.6920 hc         1 0CC       0.043200
     43 H14          8.6280    27.1480    19.4940 hc         1 0CC       0.043200
     44 H15          9.3550    23.7490    21.0320 hc         1 0CC       0.043200
     45 H16          8.2550    24.6220    19.9640 hc         1 0CC       0.043200
     46 H17          9.8490    24.1690    19.3900 hc         1 0CC       0.043200
     47 H18         10.5710    25.4460    24.5490 hc         1 0CC       0.062200
     48 H19         11.1270    26.7390    25.5950 hc         1 0CC       0.062200
     49 H21          5.8710    26.1690    28.0240 ha         1 0CC       0.163000
     50 H23          9.0630    24.1950    27.7120 hc         1 0CC       0.050367
     51 H24         10.0830    23.7620    26.3340 hc         1 0CC       0.050367
     52 H25         10.6830    24.8670    27.5560 hc         1 0CC       0.050367
     53 H26          7.7210    28.8870    25.4510 hc         1 0CC       0.057700
     54 H27          6.2150    27.9870    25.4480 hc         1 0CC       0.057700
     55 H28          7.3090    28.2220    29.0970 hc         1 0CC       0.048367
     56 H29          7.8690    29.4090    27.9160 hc         1 0CC       0.048367
     57 H30          6.1790    28.9160    27.9360 hc         1 0CC       0.048367
     58 H31          7.5980    24.3560    23.5470 h1         1 0CC       0.069700
     59 H32          8.9000    23.6920    24.5290 h1         1 0CC       0.069700
@<TRIPOS>BOND
     1     1     2 1   
     2     1     6 2   
     3     1    30 1   
     4     2     3 1   
     5     2    26 2   
     6     3     4 1   
     7     3    12 1   
     8     3    13 1   
     9     4     5 1   
    10     4     7 1   
    11     4    31 1   
    12     5     6 1   
    13     5    10 1   
    14     5    11 1   
    15     6    32 1   
    16     7     8 1   
    17     7    33 1   
    18     7    34 1   
    19     8     9 1   
    20     8    35 1   
    21     8    36 1   
    22     9    10 1   
    23     9    14 1   
    24     9    22 1   
    25    10    16 1   
    26    10    37 1   
    27    11    38 1   
    28    11    39 1   
    29    11    40 1   
    30    12    41 1   
    31    12    42 1   
    32    12    43 1   
    33    13    44 1   
    34    13    45 1   
    35    13    46 1   
    36    14    15 1   
    37    14    17 1   
    38    14    24 1   
    39    15    16 1   
    40    15    20 1   
    41    15    21 1   
    42    16    47 1   
    43    16    48 1   
    44    17    18 2   
    45    17    25 1   
    46    18    19 1   
    47    18    49 1   
    48    19    20 1   
    49    19    22 1   
    50    19    23 1   
    51    20    27 2   
    52    21    50 1   
    53    21    51 1   
    54    21    52 1   
    55    22    53 1   
    56    22    54 1   
    57    23    55 1   
    58    23    56 1   
    59    23    57 1   
    60    24    28 1   
    61    24    58 1   
    62    24    59 1   
    63    25    28 1   
    64    25    29 2   
@<TRIPOS>SUBSTRUCTURE
     1 0CC         1 TEMP              0 ****  ****    0 ROOT
