@<TRIPOS>MOLECULE
0CI
   45    48     1     0     0
SMALL
abcg2


@<TRIPOS>ATOM
      1 C6         -25.6370    -8.4840     1.7740 c5         1 0CI       0.107000
      2 C7         -25.2430    -7.1110     2.3180 c5         1 0CI      -0.096400
      3 C8         -23.7590    -6.9990     2.0010 c5         1 0CI       0.167300
      4 C10        -23.2390    -8.4170     2.2080 c5         1 0CI       0.083000
      5 C15        -20.0520    -5.5080    -0.9480 ca         1 0CI      -0.124000
      6 C17        -21.0900    -5.2260    -3.1870 ca         1 0CI      -0.107000
      7 C20        -23.5640    -5.9940    -2.1120 ca         1 0CI      -0.058000
      8 C21        -22.4300    -5.9380    -1.2780 ca         1 0CI      -0.094000
      9 C22        -19.1210    -5.8260     1.3280 cc         1 0CI       0.310900
     10 C26        -18.0790    -6.0480     3.3020 c          1 0CI       0.564000
     11 C1         -23.0840   -12.7820     1.6770 c3         1 0CI      -0.076100
     12 C2         -23.0200   -11.2690     1.8230 c3         1 0CI      -0.149400
     13 O4         -25.3930   -11.2090     1.3650 o          1 0CI      -0.610100
     14 N5         -24.3940    -9.2580     1.8750 n          1 0CI      -0.426800
     15 O11        -23.6630    -6.6190     0.6080 os         1 0CI      -0.465300
     16 C12        -22.4650    -6.2590     0.1180 ca         1 0CI       0.622300
     17 N13        -21.4230    -6.2150     0.8980 nb         1 0CI      -0.794000
     18 C14        -20.2220    -5.8400     0.3680 ca         1 0CI       0.348700
     19 C16        -21.1720    -5.5500    -1.8130 ca         1 0CI       0.001000
     20 C18        -22.2080    -5.2870    -3.9820 ca         1 0CI      -0.079000
     21 C19        -23.4530    -5.6720    -3.4440 ca         1 0CI      -0.115000
     22 N23        -17.8800    -5.5150     1.0820 nd         1 0CI      -0.479300
     23 N24        -17.2450    -5.6520     2.2900 ns         1 0CI      -0.377400
     24 O27        -17.8210    -6.2550     4.4830 o          1 0CI      -0.562000
     25 N28        -19.2930    -6.1550     2.6480 ns         1 0CI      -0.520900
     26 H1         -25.9640    -8.4320     0.7330 h1         1 0CI       0.062700
     27 H2         -26.4290    -8.9590     2.3520 h1         1 0CI       0.062700
     28 H3         -25.8190    -6.2960     1.8830 hc         1 0CI       0.069700
     29 H4         -25.3640    -7.0820     3.4020 hc         1 0CI       0.069700
     30 H5         -23.2290    -6.2680     2.6050 h1         1 0CI       0.081700
     31 H6         -22.9350    -8.5520     3.2500 h1         1 0CI       0.060700
     32 H7         -22.3850    -8.6320     1.5710 h1         1 0CI       0.060700
     33 H8         -19.0810    -5.2190    -1.3260 ha         1 0CI       0.147000
     34 H9         -20.1330    -4.9310    -3.5980 ha         1 0CI       0.124000
     35 H10        -24.5150    -6.2900    -1.6930 ha         1 0CI       0.134000
     36 H11        -22.0870   -13.2100     1.7890 hc         1 0CI       0.042700
     37 H12        -23.7330   -13.2250     2.4340 hc         1 0CI       0.042700
     38 H13        -23.4710   -13.0660     0.6980 hc         1 0CI       0.042700
     39 H14        -22.6040   -10.9930     2.7970 hc         1 0CI       0.054200
     40 H15        -22.3370   -10.8430     1.0810 hc         1 0CI       0.054200
     41 H16        -22.1370    -5.0380    -5.0330 ha         1 0CI       0.120000
     42 H17        -24.3230    -5.7140    -4.0860 ha         1 0CI       0.122000
     43 H18        -16.2590    -5.4670     2.3730 hn         1 0CI       0.492000
     44 H19        -20.1660    -6.4280     3.0710 hn         1 0CI       0.487000
     45 C3         -24.3680   -10.5870     1.6660 c          1 0CI       0.601100
@<TRIPOS>BOND
     1     1     2 1   
     2     1    14 1   
     3     1    26 1   
     4     1    27 1   
     5     2     3 1   
     6     2    28 1   
     7     2    29 1   
     8     3     4 1   
     9     3    15 1   
    10     3    30 1   
    11     4    14 1   
    12     4    31 1   
    13     4    32 1   
    14     5    18 ar  
    15     5    19 ar  
    16     5    33 1   
    17     6    19 ar  
    18     6    20 ar  
    19     6    34 1   
    20     7     8 ar  
    21     7    21 ar  
    22     7    35 1   
    23     8    16 ar  
    24     8    19 ar  
    25     9    18 1   
    26     9    22 2   
    27     9    25 1   
    28    10    23 1   
    29    10    24 2   
    30    10    25 1   
    31    11    12 1   
    32    11    36 1   
    33    11    37 1   
    34    11    38 1   
    35    12    39 1   
    36    12    40 1   
    37    12    45 1   
    38    13    45 2   
    39    14    45 1   
    40    15    16 1   
    41    16    17 ar  
    42    17    18 ar  
    43    20    21 ar  
    44    20    41 1   
    45    21    42 1   
    46    22    23 1   
    47    23    43 1   
    48    25    44 1   
@<TRIPOS>SUBSTRUCTURE
     1 0CI         1 TEMP              0 ****  ****    0 ROOT
