@<TRIPOS>MOLECULE
0CI
   45    48     1     0     0
SMALL
No Charge or Current Charge


@<TRIPOS>ATOM
      1 C6         -25.5840    -8.1320     2.1890 c5         1 0CI       0.107000
      2 C7         -24.7790    -7.3080     3.2330 c5         1 0CI      -0.096400
      3 C8         -23.3780    -7.2040     2.5790 c5         1 0CI       0.167300
      4 C10        -23.1780    -8.6660     2.0600 c5         1 0CI       0.083000
      5 C15        -19.9200    -5.9500    -0.5500 ca         1 0CI      -0.124000
      6 C17        -20.8870    -6.9510    -2.5620 ca         1 0CI      -0.107000
      7 C20        -23.3520    -7.1810    -1.2240 ca         1 0CI      -0.058000
      8 C21        -22.2400    -6.6220    -0.5560 ca         1 0CI      -0.094000
      9 C22        -18.9280    -4.9160     1.5080 cc         1 0CI       0.310900
     10 C26        -17.8700    -3.9550     3.2720 c          1 0CI       0.564000
     11 C1         -24.1090   -12.2170    -0.5800 c3         1 0CI      -0.076100
     12 C2         -23.7020   -10.9860     0.2610 c3         1 0CI      -0.149400
     13 O4         -26.0280   -10.3670     0.5120 o          1 0CI      -0.610100
     14 N5         -24.5510    -9.0370     1.6400 n          1 0CI      -0.426800
     15 O11        -23.5130    -6.2800     1.4550 os         1 0CI      -0.465300
     16 C12        -22.3130    -6.1850     0.7870 ca         1 0CI       0.622300
     17 N13        -21.2640    -5.6340     1.4390 nb         1 0CI      -0.794000
     18 C14        -20.0760    -5.5170     0.7820 ca         1 0CI       0.348700
     19 C16        -21.0110    -6.5090    -1.2320 ca         1 0CI       0.001000
     20 C18        -21.9950    -7.5090    -3.2210 ca         1 0CI      -0.079000
     21 C19        -23.2260    -7.6240    -2.5520 ca         1 0CI      -0.115000
     22 N23        -17.6810    -4.7100     1.0820 nd         1 0CI      -0.479300
     23 N24        -17.0800    -4.1300     2.1770 ns         1 0CI      -0.377400
     24 O27        -17.6120    -3.4760     4.3600 o          1 0CI      -0.562000
     25 N28        -19.0250    -4.4640     2.8070 ns         1 0CI      -0.520900
     26 H1         -25.9930    -7.4890     1.3970 h1         1 0CI       0.062700
     27 H2         -26.4160    -8.6790     2.6530 h1         1 0CI       0.062700
     28 H3         -25.2300    -6.3290     3.4340 hc         1 0CI       0.069700
     29 H4         -24.7210    -7.8400     4.1900 hc         1 0CI       0.069700
     30 H5         -22.6000    -6.8690     3.2800 h1         1 0CI       0.081700
     31 H6         -22.8370    -9.3240     2.8700 h1         1 0CI       0.060700
     32 H7         -22.4470    -8.7310     1.2450 h1         1 0CI       0.060700
     33 H8         -18.9580    -5.8470    -1.0440 ha         1 0CI       0.147000
     34 H9         -19.9370    -6.8640    -3.0850 ha         1 0CI       0.124000
     35 H10        -24.3130    -7.2760    -0.7220 ha         1 0CI       0.134000
     36 H11        -23.2180   -12.7610    -0.9170 hc         1 0CI       0.042700
     37 H12        -24.7270   -12.9040     0.0110 hc         1 0CI       0.042700
     38 H13        -24.6780   -11.9110    -1.4660 hc         1 0CI       0.042700
     39 H14        -23.0610   -11.2690     1.1040 hc         1 0CI       0.054200
     40 H15        -23.0340   -10.3260    -0.3040 hc         1 0CI       0.054200
     41 H16        -21.9010    -7.8530    -4.2490 ha         1 0CI       0.120000
     42 H17        -24.0840    -8.0560    -3.0640 ha         1 0CI       0.122000
     43 H18        -16.1010    -3.8340     2.2050 hn         1 0CI       0.492000
     44 H19        -19.8710    -4.5010     3.3610 hn         1 0CI       0.487000
     45 C3         -24.8630   -10.1270     0.8030 c          1 0CI       0.601100
@<TRIPOS>BOND
     1     1     2 1   
     2     1    14 1   
     3     1    26 1   
     4     1    27 1   
     5     2     3 1   
     6     2    28 1   
     7     2    29 1   
     8     3     4 1   
     9     3    15 1   
    10     3    30 1   
    11     4    14 1   
    12     4    31 1   
    13     4    32 1   
    14     5    18 ar  
    15     5    19 ar  
    16     5    33 1   
    17     6    19 ar  
    18     6    20 ar  
    19     6    34 1   
    20     7     8 ar  
    21     7    21 ar  
    22     7    35 1   
    23     8    16 ar  
    24     8    19 ar  
    25     9    18 1   
    26     9    22 2   
    27     9    25 1   
    28    10    23 1   
    29    10    24 2   
    30    10    25 1   
    31    11    12 1   
    32    11    36 1   
    33    11    37 1   
    34    11    38 1   
    35    12    39 1   
    36    12    40 1   
    37    12    45 1   
    38    13    45 2   
    39    14    45 1   
    40    15    16 1   
    41    16    17 ar  
    42    17    18 ar  
    43    20    21 ar  
    44    20    41 1   
    45    21    42 1   
    46    22    23 1   
    47    23    43 1   
    48    25    44 1   
@<TRIPOS>SUBSTRUCTURE
     1 0CI         1 TEMP              0 ****  ****    0 ROOT
