@<TRIPOS>MOLECULE
0CK
   45    48     1     0     0
SMALL
abcg2


@<TRIPOS>ATOM
      1 C7          -0.3820     0.3370     0.0290 cc         1 0CK      -0.261500
      2 N2          -1.5890     0.9900    -0.0490 na         1 0CK      -0.149500
      3 C8          -1.3120     2.3050    -0.1460 cc         1 0CK       0.405400
      4 N3          -0.0270     2.5450    -0.1230 nd         1 0CK      -0.676000
      5 C9           0.5770     1.3270    -0.0130 cd         1 0CK       0.338500
      6 C10         -0.9010    -1.8640     1.0920 ca         1 0CK      -0.288000
      7 C11         -0.6500    -3.2270     1.0880 ca         1 0CK       0.151900
      8 N4           0.1710    -3.8100     0.2330 nb         1 0CK      -0.244000
      9 C12          0.7660    -3.0040    -0.6560 ca         1 0CK       0.380900
     10 N5           0.5850    -1.6840    -0.7520 nb         1 0CK      -0.232000
     11 C13         -0.2390    -1.1190     0.1200 ca         1 0CK       0.247500
     12 C14         -3.7070     0.6970     1.1770 c6         1 0CK      -0.087400
     13 C15         -2.9280     0.4070    -0.1030 c6         1 0CK       0.078300
     14 C16         -3.6910     0.8720    -1.3410 c6         1 0CK      -0.087400
     15 C17         -5.0680     0.2140    -1.3890 c6         1 0CK      -0.074400
     16 C18         -5.8610     0.4830    -0.1150 c6         1 0CK      -0.078400
     17 C19         -5.0850     0.0450     1.1230 c6         1 0CK      -0.074400
     18 C1           4.0430     0.1530     0.9170 ca         1 0CK      -0.160000
     19 C2           4.8000     1.0980     0.2520 ca         1 0CK       0.168000
     20 C3           4.2190     2.1100    -0.4870 ca         1 0CK      -0.160000
     21 C4           2.8360     2.1660    -0.5650 ca         1 0CK      -0.061500
     22 C5           2.0350     1.2220     0.0800 ca         1 0CK      -0.111500
     23 C6           2.6610     0.2260     0.8310 ca         1 0CK      -0.061500
     24 H1          -2.0840     3.0540    -0.2360 h5         1 0CK       0.057100
     25 H2          -1.5460    -1.4130     1.8310 ha         1 0CK       0.136000
     26 H3          -1.1290    -3.8710     1.8170 h4         1 0CK       0.022100
     27 H4           1.8880    -4.5250    -1.4060 hn         1 0CK       0.499500
     28 H5           2.1880    -2.9860    -2.1070 hn         1 0CK       0.499500
     29 H6          -3.1480     0.3330     2.0430 hc         1 0CK       0.053200
     30 H7          -3.8150     1.7790     1.3020 hc         1 0CK       0.053200
     31 H8          -2.7900    -0.6730    -0.1880 h1         1 0CK       0.075700
     32 H9          -3.8130     1.9590    -1.3220 hc         1 0CK       0.053200
     33 H10         -3.1190     0.6270    -2.2390 hc         1 0CK       0.053200
     34 H11         -5.6130     0.5780    -2.2620 hc         1 0CK       0.046200
     35 H12         -4.9490    -0.8660    -1.5270 hc         1 0CK       0.046200
     36 H13         -6.0800     1.5540    -0.0440 hc         1 0CK       0.044700
     37 H14         -6.8240    -0.0300    -0.1570 hc         1 0CK       0.044700
     38 H15         -4.9700    -1.0440     1.1170 hc         1 0CK       0.046200
     39 H16         -5.6410     0.2920     2.0290 hc         1 0CK       0.046200
     40 H17          4.5210    -0.6200     1.5040 ha         1 0CK       0.128500
     41 H18          4.8330     2.8430    -0.9940 ha         1 0CK       0.128500
     42 H19          2.3720     2.9550    -1.1420 ha         1 0CK       0.123500
     43 H20          2.0720    -0.4980     1.3770 ha         1 0CK       0.123500
     44 N1           1.5940    -3.5750    -1.5500 nv         1 0CK      -1.059900
     45 F1           6.1390     1.0340     0.3340 f          1 0CK      -0.183000
@<TRIPOS>BOND
     1     1     2 1   
     2     1     5 2   
     3     1    11 1   
     4     2     3 1   
     5     2    13 1   
     6     3     4 2   
     7     3    24 1   
     8     4     5 1   
     9     5    22 1   
    10     6     7 ar  
    11     6    11 ar  
    12     6    25 1   
    13     7     8 ar  
    14     7    26 1   
    15     8     9 ar  
    16     9    10 ar  
    17     9    44 1   
    18    10    11 ar  
    19    12    13 1   
    20    12    17 1   
    21    12    29 1   
    22    12    30 1   
    23    13    14 1   
    24    13    31 1   
    25    14    15 1   
    26    14    32 1   
    27    14    33 1   
    28    15    16 1   
    29    15    34 1   
    30    15    35 1   
    31    16    17 1   
    32    16    36 1   
    33    16    37 1   
    34    17    38 1   
    35    17    39 1   
    36    18    19 ar  
    37    18    23 ar  
    38    18    40 1   
    39    19    20 ar  
    40    19    45 1   
    41    20    21 ar  
    42    20    41 1   
    43    21    22 ar  
    44    21    42 1   
    45    22    23 ar  
    46    23    43 1   
    47    27    44 1   
    48    28    44 1   
@<TRIPOS>SUBSTRUCTURE
     1 0CK         1 TEMP              0 ****  ****    0 ROOT
