@<TRIPOS>MOLECULE
0CK
   45    48     1     0     0
SMALL
No Charge or Current Charge


@<TRIPOS>ATOM
      1 C7          -0.4010     0.3490     0.0600 cc         1 0CK      -0.261500
      2 N2          -1.6090     1.0020    -0.0730 na         1 0CK      -0.149500
      3 C8          -1.3190     2.3370    -0.2610 cc         1 0CK       0.405400
      4 N3          -0.0090     2.5400    -0.2800 nd         1 0CK      -0.676000
      5 C9           0.5850     1.3030    -0.1010 cd         1 0CK       0.338500
      6 C10         -0.7770    -1.8760     1.1100 ca         1 0CK      -0.288000
      7 C11         -0.5300    -3.2580     1.1010 ca         1 0CK       0.151900
      8 N4           0.2570    -3.8210     0.1640 nb         1 0CK      -0.244000
      9 C12          0.7790    -2.9860    -0.7460 ca         1 0CK       0.380900
     10 N5           0.6100    -1.6580    -0.8300 nb         1 0CK      -0.232000
     11 C13         -0.1750    -1.0920     0.1100 ca         1 0CK       0.247500
     12 C14         -3.7590     0.8220     1.1870 c6         1 0CK      -0.087400
     13 C15         -2.9600     0.3920    -0.0730 c6         1 0CK       0.078300
     14 C16         -3.7410     0.7410    -1.3700 c6         1 0CK      -0.087400
     15 C17         -5.1490     0.0960    -1.3600 c6         1 0CK      -0.074400
     16 C18         -5.9470     0.5160    -0.1000 c6         1 0CK      -0.078400
     17 C19         -5.1690     0.1800     1.1970 c6         1 0CK      -0.074400
     18 C1           4.0710     0.0640     0.8910 ca         1 0CK      -0.160000
     19 C2           4.8750     1.0810     0.3620 ca         1 0CK       0.168000
     20 C3           4.2890     2.1660    -0.3020 ca         1 0CK      -0.160000
     21 C4           2.8920     2.2260    -0.4510 ca         1 0CK      -0.061500
     22 C5           2.0620     1.1880     0.0390 ca         1 0CK      -0.111500
     23 C6           2.6730     0.1210     0.7420 ca         1 0CK      -0.061500
     24 H1          -2.0880     3.0900    -0.3830 h5         1 0CK       0.057100
     25 H2          -1.4080    -1.4280     1.8730 ha         1 0CK       0.136000
     26 H3          -0.9630    -3.9200     1.8490 h4         1 0CK       0.022100
     27 H4           1.9010    -4.5040    -1.5410 hn         1 0CK       0.499500
     28 H5           2.1610    -2.9500    -2.2610 hn         1 0CK       0.499500
     29 H6          -3.2130     0.5280     2.0930 hc         1 0CK       0.053200
     30 H7          -3.8530     1.9160     1.2190 hc         1 0CK       0.053200
     31 H8          -2.8470    -0.7000    -0.0450 h1         1 0CK       0.075700
     32 H9          -3.8410     1.8300    -1.4750 hc         1 0CK       0.053200
     33 H10         -3.1800     0.3910    -2.2480 hc         1 0CK       0.053200
     34 H11         -5.7000     0.3880    -2.2640 hc         1 0CK       0.046200
     35 H12         -5.0560    -0.9980    -1.3910 hc         1 0CK       0.046200
     36 H13         -6.1560     1.5950    -0.1370 hc         1 0CK       0.044700
     37 H14         -6.9230     0.0100    -0.0900 hc         1 0CK       0.044700
     38 H15         -5.0790    -0.9100     1.3030 hc         1 0CK       0.046200
     39 H16         -5.7320     0.5320     2.0720 hc         1 0CK       0.046200
     40 H17          4.5280    -0.7630     1.4290 ha         1 0CK       0.128500
     41 H18          4.9150     2.9610    -0.6980 ha         1 0CK       0.128500
     42 H19          2.4580     3.0780    -0.9690 ha         1 0CK       0.123500
     43 H20          2.0780    -0.6570     1.2090 ha         1 0CK       0.123500
     44 N1           1.5730    -3.5520    -1.6900 nv         1 0CK      -1.059900
     45 F1           6.2160     1.0250     0.5100 f          1 0CK      -0.183000
@<TRIPOS>BOND
     1     1     2 1   
     2     1     5 2   
     3     1    11 1   
     4     2     3 1   
     5     2    13 1   
     6     3     4 2   
     7     3    24 1   
     8     4     5 1   
     9     5    22 1   
    10     6     7 ar  
    11     6    11 ar  
    12     6    25 1   
    13     7     8 ar  
    14     7    26 1   
    15     8     9 ar  
    16     9    10 ar  
    17     9    44 1   
    18    10    11 ar  
    19    12    13 1   
    20    12    17 1   
    21    12    29 1   
    22    12    30 1   
    23    13    14 1   
    24    13    31 1   
    25    14    15 1   
    26    14    32 1   
    27    14    33 1   
    28    15    16 1   
    29    15    34 1   
    30    15    35 1   
    31    16    17 1   
    32    16    36 1   
    33    16    37 1   
    34    17    38 1   
    35    17    39 1   
    36    18    19 ar  
    37    18    23 ar  
    38    18    40 1   
    39    19    20 ar  
    40    19    45 1   
    41    20    21 ar  
    42    20    41 1   
    43    21    22 ar  
    44    21    42 1   
    45    22    23 ar  
    46    23    43 1   
    47    27    44 1   
    48    28    44 1   
@<TRIPOS>SUBSTRUCTURE
     1 0CK         1 TEMP              0 ****  ****    0 ROOT
