@<TRIPOS>MOLECULE
0CL
   11    10     1     0     0
SMALL
No Charge or Current Charge


@<TRIPOS>ATOM
      1 Cl1         -2.7730     0.2500     0.0330 cl         1 0CL      -0.278000
      2 C2          -1.2720    -0.7750    -0.0010 c3         1 0CL       0.124600
      3 C3          -0.0060     0.1010     0.0110 c3         1 0CL      -0.097400
      4 C4           1.2920    -0.7280    -0.0170 c3         1 0CL       0.124600
      5 Cl5          2.7540     0.3520    -0.0030 cl         1 0CL      -0.278000
      6 H2          -1.2960    -1.4310     0.8800 h1         1 0CL       0.064700
      7 H2A         -1.3090    -1.3900    -0.9090 h1         1 0CL       0.064700
      8 H3          -0.0240     0.7710    -0.8570 hc         1 0CL       0.072700
      9 H3A         -0.0110     0.7310     0.9080 hc         1 0CL       0.072700
     10 H4           1.3520    -1.3820     0.8620 h1         1 0CL       0.064700
     11 H4A          1.3400    -1.3410    -0.9260 h1         1 0CL       0.064700
@<TRIPOS>BOND
     1     1     2 1   
     2     2     3 1   
     3     2     6 1   
     4     2     7 1   
     5     3     4 1   
     6     3     8 1   
     7     3     9 1   
     8     4     5 1   
     9     4    10 1   
    10     4    11 1   
@<TRIPOS>SUBSTRUCTURE
     1 0CL         1 TEMP              0 ****  ****    0 ROOT
