@<TRIPOS>MOLECULE
0CL
   11    10     1     0     0
SMALL
abcg2


@<TRIPOS>ATOM
      1 CL1         -2.7340     0.2120     0.0380 cl         1 0CL      -0.278000
      2 C2          -1.2280    -0.7720    -0.0030 c3         1 0CL       0.124600
      3 C3          -0.0060     0.1260     0.0110 c3         1 0CL      -0.097400
      4 C4           1.2480    -0.7270    -0.0150 c3         1 0CL       0.124600
      5 CL5          2.7160     0.3130    -0.0100 cl         1 0CL      -0.278000
      6 H2          -1.2560    -1.4300     0.8630 h1         1 0CL       0.064700
      7 H2A         -1.2720    -1.3800    -0.9050 h1         1 0CL       0.064700
      8 H3          -0.0220     0.7870    -0.8560 hc         1 0CL       0.072700
      9 H3A         -0.0130     0.7460     0.9080 hc         1 0CL       0.072700
     10 H4           1.3150    -1.3720     0.8590 h1         1 0CL       0.064700
     11 H4A          1.2990    -1.3430    -0.9100 h1         1 0CL       0.064700
@<TRIPOS>BOND
     1     1     2 1   
     2     2     3 1   
     3     2     6 1   
     4     2     7 1   
     5     3     4 1   
     6     3     8 1   
     7     3     9 1   
     8     4     5 1   
     9     4    10 1   
    10     4    11 1   
@<TRIPOS>SUBSTRUCTURE
     1 0CL         1 TEMP              0 ****  ****    0 ROOT
