@<TRIPOS>MOLECULE
0CO
   76    79     1     0     0
SMALL
abcg2


@<TRIPOS>ATOM
      1 C5          -5.1390    -0.0680     0.5970 ce         1 0CO      -0.067200
      2 C4          -6.5630    -0.2730     0.1540 c6         1 0CO      -0.073200
      3 C3          -7.0770     0.9310    -0.6410 c6         1 0CO       0.176300
      4 C2          -6.8970     2.2090     0.1660 c6         1 0CO      -0.065400
      5 C1          -5.4530     2.4210     0.5980 c6         1 0CO       0.212500
      6 C10         -4.9310     1.2000     1.3210 ce         1 0CO      -0.124200
      7 C6          -4.1730    -0.9560     0.3080 cf         1 0CO      -0.160000
      8 C7          -2.7630    -0.8200     0.6140 cf         1 0CO      -0.192000
      9 C8          -1.8110    -1.7450     0.4060 c2         1 0CO      -0.076400
     10 C14         -0.3730    -1.5190     0.7490 c5         1 0CO      -0.038500
     11 C13          0.5690    -1.6910    -0.4700 c5         1 0CO      -0.028000
     12 C12          0.3840    -3.1220    -0.9870 c6         1 0CO      -0.064400
     13 C11         -1.0770    -3.4260    -1.3170 c6         1 0CO      -0.071400
     14 C9          -2.0320    -3.1230    -0.1560 c6         1 0CO      -0.041200
     15 C15          0.0830    -0.2220     1.3970 c5         1 0CO      -0.070400
     16 C16          1.6120    -0.2370     1.2000 c5         1 0CO      -0.073400
     17 C17          1.9230    -1.3980     0.2200 c5         1 0CO      -0.045700
     18 C19         -4.3720     1.2940     2.5260 c2         1 0CO      -0.296000
     19 O3          -8.4510     0.8090    -0.9420 oh         1 0CO      -0.662000
     20 O1          -4.6880     2.6660    -0.5670 oh         1 0CO      -0.656000
     21 C20          3.2070    -1.1670    -0.5940 c5         1 0CO       0.189000
     22 C22          4.4260    -1.0310     0.3590 c5         1 0CO      -0.110400
     23 C23          4.9550     0.3910     0.1430 c5         1 0CO      -0.092700
     24 C28          4.4060     0.7010    -1.2440 c5         1 0CO       0.159600
     25 O21          3.1390     0.0810    -1.2830 os         1 0CO      -0.452000
     26 C24          6.4660     0.4820     0.3100 c3         1 0CO      -0.092400
     27 C25          7.1050     1.8670     0.1380 c3         1 0CO       0.184000
     28 C26          8.5970     1.7660     0.4570 c3         1 0CO      -0.101100
     29 O25          6.9300     2.3420    -1.1930 oh         1 0CO      -0.660000
     30 C27          6.4490     2.9020     1.0430 c3         1 0CO      -0.101100
     31 C18          0.2390    -0.6740    -1.5640 c3         1 0CO      -0.074100
     32 C21          3.4710    -2.2770    -1.6100 c3         1 0CO      -0.103100
     33 H4          -6.6480    -1.1850    -0.4430 hc         1 0CO       0.051200
     34 H4A         -7.2090    -0.3950     1.0330 hc         1 0CO       0.051200
     35 H3          -6.4890     1.0050    -1.5660 h1         1 0CO       0.050700
     36 H2          -7.2390     3.0750    -0.4070 hc         1 0CO       0.062200
     37 H2A         -7.5190     2.1570     1.0660 hc         1 0CO       0.062200
     38 H1          -5.4100     3.2810     1.2800 h1         1 0CO       0.036700
     39 H6          -4.4820    -1.8460    -0.2330 ha         1 0CO       0.169000
     40 H7          -2.4570     0.1250     1.0470 ha         1 0CO       0.174000
     41 H14         -0.1020    -2.3330     1.4410 hc         1 0CO       0.048700
     42 H12          0.9930    -3.3140    -1.8710 hc         1 0CO       0.038700
     43 H12A         0.7330    -3.8180    -0.2150 hc         1 0CO       0.038700
     44 H11         -1.3890    -2.8550    -2.1950 hc         1 0CO       0.041200
     45 H11A        -1.1760    -4.4790    -1.5930 hc         1 0CO       0.041200
     46 H9          -1.8440    -3.8480     0.6470 hc         1 0CO       0.045200
     47 H9A         -3.0610    -3.2840    -0.4750 hc         1 0CO       0.045200
     48 H15         -0.3590     0.6440     0.8990 hc         1 0CO       0.044200
     49 H15A        -0.2070    -0.1620     2.4470 hc         1 0CO       0.044200
     50 H16          1.9560     0.7170     0.8030 hc         1 0CO       0.045700
     51 H16A         2.1320    -0.3870     2.1470 hc         1 0CO       0.045700
     52 H17          2.1370    -2.2890     0.8240 hc         1 0CO       0.041700
     53 H19         -4.0190     0.4240     3.0660 ha         1 0CO       0.168000
     54 H19A        -4.2630     2.2530     3.0200 ha         1 0CO       0.168000
     55 HO3         -8.5640     0.0490    -1.5220 ho         1 0CO       0.441000
     56 HO1         -3.7640     2.7430    -0.3080 ho         1 0CO       0.445000
     57 H22          4.1650    -1.2130     1.4020 hc         1 0CO       0.049200
     58 H22A         5.1930    -1.7670     0.1010 hc         1 0CO       0.049200
     59 H23          4.4700     1.0560     0.8640 hc         1 0CO       0.061700
     60 H28          4.2740     1.7650    -1.4420 h1         1 0CO       0.049700
     61 H28A         5.0720     0.2950    -2.0200 h1         1 0CO       0.049700
     62 H24          6.7210     0.1110     1.3080 hc         1 0CO       0.042700
     63 H24A         6.9450    -0.2130    -0.3920 hc         1 0CO       0.042700
     64 H26          9.0840     1.0200    -0.1770 hc         1 0CO       0.042367
     65 H26A         9.0960     2.7230     0.2960 hc         1 0CO       0.042367
     66 H26B         8.7610     1.4700     1.4940 hc         1 0CO       0.042367
     67 HO25         7.3420     1.7110    -1.7920 ho         1 0CO       0.439000
     68 H27          6.4710     2.5700     2.0810 hc         1 0CO       0.042367
     69 H27A         6.9750     3.8570     0.9870 hc         1 0CO       0.042367
     70 H27B         5.4080     3.0760     0.7660 hc         1 0CO       0.042367
     71 H18          0.3970     0.3520    -1.2340 hc         1 0CO       0.038367
     72 H18A         0.8670    -0.8270    -2.4420 hc         1 0CO       0.038367
     73 H18B        -0.8000    -0.7540    -1.8840 hc         1 0CO       0.038367
     74 H21          2.7230    -2.2980    -2.4010 hc         1 0CO       0.040033
     75 H21A         4.4460    -2.1380    -2.0830 hc         1 0CO       0.040033
     76 H21B         3.4810    -3.2550    -1.1270 hc         1 0CO       0.040033
@<TRIPOS>BOND
     1     1     2 1   
     2     1     6 1   
     3     1     7 2   
     4     2     3 1   
     5     2    33 1   
     6     2    34 1   
     7     3     4 1   
     8     3    19 1   
     9     3    35 1   
    10     4     5 1   
    11     4    36 1   
    12     4    37 1   
    13     5     6 1   
    14     5    20 1   
    15     5    38 1   
    16     6    18 2   
    17     7     8 1   
    18     7    39 1   
    19     8     9 2   
    20     8    40 1   
    21     9    10 1   
    22     9    14 1   
    23    10    11 1   
    24    10    15 1   
    25    10    41 1   
    26    11    12 1   
    27    11    17 1   
    28    11    31 1   
    29    12    13 1   
    30    12    42 1   
    31    12    43 1   
    32    13    14 1   
    33    13    44 1   
    34    13    45 1   
    35    14    46 1   
    36    14    47 1   
    37    15    16 1   
    38    15    48 1   
    39    15    49 1   
    40    16    17 1   
    41    16    50 1   
    42    16    51 1   
    43    17    21 1   
    44    17    52 1   
    45    18    53 1   
    46    18    54 1   
    47    19    55 1   
    48    20    56 1   
    49    21    22 1   
    50    21    25 1   
    51    21    32 1   
    52    22    23 1   
    53    22    57 1   
    54    22    58 1   
    55    23    24 1   
    56    23    26 1   
    57    23    59 1   
    58    24    25 1   
    59    24    60 1   
    60    24    61 1   
    61    26    27 1   
    62    26    62 1   
    63    26    63 1   
    64    27    28 1   
    65    27    29 1   
    66    27    30 1   
    67    28    64 1   
    68    28    65 1   
    69    28    66 1   
    70    29    67 1   
    71    30    68 1   
    72    30    69 1   
    73    30    70 1   
    74    31    71 1   
    75    31    72 1   
    76    31    73 1   
    77    32    74 1   
    78    32    75 1   
    79    32    76 1   
@<TRIPOS>SUBSTRUCTURE
     1 0CO         1 TEMP              0 ****  ****    0 ROOT
