@<TRIPOS>MOLECULE
0CO
   76    79     1     0     0
SMALL
No Charge or Current Charge


@<TRIPOS>ATOM
      1 C5          -5.1470     0.0290     0.5220 ce         1 0CO      -0.067200
      2 C4          -6.6040    -0.1570     0.0780 c6         1 0CO      -0.073200
      3 C3          -7.1700     1.1460    -0.5400 c6         1 0CO       0.176300
      4 C2          -7.0120     2.3290     0.4460 c6         1 0CO      -0.065400
      5 C1          -5.5430     2.5150     0.8950 c6         1 0CO       0.212500
      6 C10         -4.9490     1.1940     1.4080 ce         1 0CO      -0.124200
      7 C6          -4.1820    -0.8650     0.1540 cf         1 0CO      -0.160000
      8 C7          -2.7610    -0.7870     0.5020 cf         1 0CO      -0.192000
      9 C8          -1.8070    -1.7440     0.3150 c2         1 0CO      -0.076400
     10 C14         -0.3350    -1.5690     0.7330 c5         1 0CO      -0.038500
     11 C13          0.5940    -1.7870    -0.5100 c5         1 0CO      -0.028000
     12 C12          0.3790    -3.2490    -1.0230 c6         1 0CO      -0.064400
     13 C11         -1.1050    -3.5230    -1.3980 c6         1 0CO      -0.071400
     14 C9          -2.0860    -3.1430    -0.2570 c6         1 0CO      -0.041200
     15 C15          0.1010    -0.1610     1.2360 c5         1 0CO      -0.070400
     16 C16          1.6590    -0.1920     1.0730 c5         1 0CO      -0.073400
     17 C17          1.9630    -1.5260     0.2760 c5         1 0CO      -0.045700
     18 C19         -4.3360     1.1130     2.6100 c2         1 0CO      -0.296000
     19 O3          -8.5520     0.9720    -0.8750 oh         1 0CO      -0.662000
     20 O1          -4.7410     3.0000    -0.1840 oh         1 0CO      -0.656000
     21 C20          3.3110    -1.3760    -0.6090 c5         1 0CO       0.189000
     22 C22          4.5000    -1.1500     0.4070 c5         1 0CO      -0.110400
     23 C23          4.9750     0.3050     0.1070 c5         1 0CO      -0.092700
     24 C28          4.5770     0.4190    -1.3830 c5         1 0CO       0.159600
     25 O21          3.2600    -0.1550    -1.3830 os         1 0CO      -0.452000
     26 C24          6.4720     0.5640     0.4550 c3         1 0CO      -0.092400
     27 C25          7.0580     1.9810     0.1590 c3         1 0CO       0.184000
     28 C26          8.5180     2.0640     0.6630 c3         1 0CO      -0.101100
     29 O25          7.0900     2.1910    -1.2530 oh         1 0CO      -0.660000
     30 C27          6.2150     3.1140     0.7900 c3         1 0CO      -0.101100
     31 C18          0.3320    -0.7950    -1.6980 c3         1 0CO      -0.074100
     32 C21          3.6050    -2.5550    -1.5680 c3         1 0CO      -0.103100
     33 H4          -6.6860    -0.9760    -0.6500 hc         1 0CO       0.051200
     34 H4A         -7.2090    -0.4530     0.9460 hc         1 0CO       0.051200
     35 H3          -6.5930     1.3750    -1.4490 h1         1 0CO       0.050700
     36 H2          -7.3830     3.2550    -0.0120 hc         1 0CO       0.062200
     37 H2A         -7.6350     2.1500     1.3330 hc         1 0CO       0.062200
     38 H1          -5.5320     3.2520     1.7130 h1         1 0CO       0.036700
     39 H6          -4.5010    -1.6920    -0.4780 ha         1 0CO       0.169000
     40 H7          -2.4650     0.1540     0.9600 ha         1 0CO       0.174000
     41 H14         -0.1230    -2.3090     1.5160 hc         1 0CO       0.048700
     42 H12          1.0050    -3.4590    -1.8980 hc         1 0CO       0.038700
     43 H12A         0.6890    -3.9610    -0.2460 hc         1 0CO       0.038700
     44 H11         -1.3710    -2.9700    -2.3090 hc         1 0CO       0.041200
     45 H11A        -1.2300    -4.5850    -1.6490 hc         1 0CO       0.041200
     46 H9          -1.9810    -3.8740     0.5560 hc         1 0CO       0.045200
     47 H9A         -3.1110    -3.2590    -0.6220 hc         1 0CO       0.045200
     48 H15         -0.3220     0.6500     0.6340 hc         1 0CO       0.044200
     49 H15A        -0.2040     0.0190     2.2740 hc         1 0CO       0.044200
     50 H16          1.9890     0.7150     0.5570 hc         1 0CO       0.045700
     51 H16A         2.1600    -0.1910     2.0480 hc         1 0CO       0.045700
     52 H17          2.1200    -2.3440     0.9910 hc         1 0CO       0.041700
     53 H19         -3.9420     0.1690     2.9870 ha         1 0CO       0.168000
     54 H19A        -4.2170     1.9820     3.2580 ha         1 0CO       0.168000
     55 HO3         -8.5900     0.2620    -1.5530 ho         1 0CO       0.441000
     56 HO1         -3.8130     2.8180     0.0760 ho         1 0CO       0.445000
     57 H22          4.2230    -1.2780     1.4590 hc         1 0CO       0.049200
     58 H22A         5.3080    -1.8700     0.2300 hc         1 0CO       0.049200
     59 H23          4.3820     1.0090     0.7000 hc         1 0CO       0.061700
     60 H28          4.5310     1.4560    -1.7400 h1         1 0CO       0.049700
     61 H28A         5.2370    -0.1630    -2.0410 h1         1 0CO       0.049700
     62 H24          6.6080     0.3620     1.5250 hc         1 0CO       0.042700
     63 H24A         7.0910    -0.1800    -0.0620 hc         1 0CO       0.042700
     64 H26          9.1380     1.2790     0.2140 hc         1 0CO       0.042367
     65 H26A         8.9660     3.0350     0.4150 hc         1 0CO       0.042367
     66 H26B         8.5590     1.9440     1.7530 hc         1 0CO       0.042367
     67 HO25         7.7640     1.5780    -1.6170 ho         1 0CO       0.439000
     68 H27          6.1040     2.9600     1.8700 hc         1 0CO       0.042367
     69 H27A         6.6940     4.0890     0.6350 hc         1 0CO       0.042367
     70 H27B         5.2150     3.1640     0.3450 hc         1 0CO       0.042367
     71 H18          0.5950     0.2400    -1.4550 hc         1 0CO       0.038367
     72 H18A         0.9220    -1.0710    -2.5790 hc         1 0CO       0.038367
     73 H18B        -0.7190    -0.7830    -2.0050 hc         1 0CO       0.038367
     74 H21          2.9510    -2.5300    -2.4450 hc         1 0CO       0.040033
     75 H21A         4.6360    -2.5250    -1.9420 hc         1 0CO       0.040033
     76 H21B         3.4660    -3.5160    -1.0600 hc         1 0CO       0.040033
@<TRIPOS>BOND
     1     1     2 1   
     2     1     6 1   
     3     1     7 2   
     4     2     3 1   
     5     2    33 1   
     6     2    34 1   
     7     3     4 1   
     8     3    19 1   
     9     3    35 1   
    10     4     5 1   
    11     4    36 1   
    12     4    37 1   
    13     5     6 1   
    14     5    20 1   
    15     5    38 1   
    16     6    18 2   
    17     7     8 1   
    18     7    39 1   
    19     8     9 2   
    20     8    40 1   
    21     9    10 1   
    22     9    14 1   
    23    10    11 1   
    24    10    15 1   
    25    10    41 1   
    26    11    12 1   
    27    11    17 1   
    28    11    31 1   
    29    12    13 1   
    30    12    42 1   
    31    12    43 1   
    32    13    14 1   
    33    13    44 1   
    34    13    45 1   
    35    14    46 1   
    36    14    47 1   
    37    15    16 1   
    38    15    48 1   
    39    15    49 1   
    40    16    17 1   
    41    16    50 1   
    42    16    51 1   
    43    17    21 1   
    44    17    52 1   
    45    18    53 1   
    46    18    54 1   
    47    19    55 1   
    48    20    56 1   
    49    21    22 1   
    50    21    25 1   
    51    21    32 1   
    52    22    23 1   
    53    22    57 1   
    54    22    58 1   
    55    23    24 1   
    56    23    26 1   
    57    23    59 1   
    58    24    25 1   
    59    24    60 1   
    60    24    61 1   
    61    26    27 1   
    62    26    62 1   
    63    26    63 1   
    64    27    28 1   
    65    27    29 1   
    66    27    30 1   
    67    28    64 1   
    68    28    65 1   
    69    28    66 1   
    70    29    67 1   
    71    30    68 1   
    72    30    69 1   
    73    30    70 1   
    74    31    71 1   
    75    31    72 1   
    76    31    73 1   
    77    32    74 1   
    78    32    75 1   
    79    32    76 1   
@<TRIPOS>SUBSTRUCTURE
     1 0CO         1 TEMP              0 ****  ****    0 ROOT
