@<TRIPOS>MOLECULE
0CP
   47    50     1     0     0
SMALL
No Charge or Current Charge


@<TRIPOS>ATOM
      1 C1           1.8240     4.6140    -0.1980 c3         1 0CP       0.144900
      2 N1          -4.8850    -0.7350     1.0860 ns         1 0CP      -0.530400
      3 O1           1.9230     3.2090     0.0930 os         1 0CP      -0.319100
      4 C2           0.8200     2.3680     0.0990 ca         1 0CP       0.112100
      5 N2          -4.5520    -1.1950    -1.1650 ns         1 0CP      -0.530400
      6 O2           2.3260     0.5890     0.6670 os         1 0CP      -0.326100
      7 C3           1.0170     0.9960     0.3920 ca         1 0CP       0.124100
      8 C4           2.5440    -0.8480     0.5920 c5         1 0CP       0.164300
      9 C5           2.4280    -1.3230    -0.9020 c5         1 0CP      -0.108400
     10 C6           3.8680    -1.8370    -1.2250 c5         1 0CP      -0.074700
     11 C7           4.0830    -3.1490    -0.4020 c5         1 0CP      -0.081400
     12 C8           4.2410    -2.6280     1.0630 c5         1 0CP      -0.081400
     13 C9           4.0590    -1.0840     0.9070 c5         1 0CP      -0.067700
     14 C10          4.7430    -0.8250    -0.4560 c5         1 0CP      -0.079400
     15 C11         -0.1100     0.1280     0.4120 ca         1 0CP      -0.166000
     16 C12         -1.4010     0.6150     0.1270 ca         1 0CP      -0.085300
     17 C13         -1.5750     1.9780    -0.1720 ca         1 0CP      -0.107000
     18 C14         -0.4780     2.8500    -0.1840 ca         1 0CP      -0.169000
     19 C15         -2.6040    -0.3410     0.1460 c6         1 0CP      -0.042400
     20 C16         -3.6460     0.0460     1.2190 c6         1 0CP       0.119500
     21 C17         -5.3220    -1.3660    -0.0470 c          1 0CP       0.615000
     22 C18         -3.2830    -0.4570    -1.2380 c6         1 0CP       0.119500
     23 H1           1.4230     4.7770    -1.2070 h1         1 0CP       0.040033
     24 H1A          1.1730     5.1180     0.5270 h1         1 0CP       0.040033
     25 H1B          2.8150     5.0820    -0.1470 h1         1 0CP       0.040033
     26 HN2         -4.8900    -1.6540    -2.0020 hn         1 0CP       0.329500
     27 H4           1.9030    -1.3820     1.3050 h1         1 0CP       0.050700
     28 H5           1.6670    -2.1020    -1.0290 hc         1 0CP       0.054200
     29 H5A          2.1530    -0.5020    -1.5750 hc         1 0CP       0.054200
     30 H6           4.0870    -1.9310    -2.2950 hc         1 0CP       0.068700
     31 H7           3.2510    -3.8560    -0.5090 hc         1 0CP       0.044700
     32 H7A          4.9880    -3.6750    -0.7280 hc         1 0CP       0.044700
     33 H8           3.5090    -3.0730     1.7480 hc         1 0CP       0.046200
     34 H8A          5.2340    -2.8700     1.4590 hc         1 0CP       0.046200
     35 H9           4.4450    -0.4960     1.7490 hc         1 0CP       0.081700
     36 H10          5.8100    -1.0780    -0.4630 hc         1 0CP       0.057700
     37 H10A         4.6320     0.2060    -0.8120 hc         1 0CP       0.057700
     38 H11         -0.0120    -0.9250     0.6490 ha         1 0CP       0.121000
     39 H13         -2.5660     2.3690    -0.3940 ha         1 0CP       0.114000
     40 H14         -0.6540     3.8970    -0.4160 ha         1 0CP       0.120000
     41 H15         -2.2510    -1.3490     0.4040 hc         1 0CP       0.071700
     42 H16         -3.9090     1.1090     1.1220 h1         1 0CP       0.042950
     43 H16A        -3.2270    -0.1080     2.2230 h1         1 0CP       0.042950
     44 H18         -2.6100    -0.9610    -1.9460 h1         1 0CP       0.042950
     45 H18A        -3.5000     0.5450    -1.6340 h1         1 0CP       0.042950
     46 HN1         -5.4680    -0.8550     1.9050 hn         1 0CP       0.329500
     47 O3          -6.3430    -2.0230    -0.0630 o          1 0CP      -0.614000
@<TRIPOS>BOND
     1     1     3 1   
     2     1    23 1   
     3     1    24 1   
     4     1    25 1   
     5     2    20 1   
     6     2    21 1   
     7     2    46 1   
     8     3     4 1   
     9     4     7 ar  
    10     4    18 ar  
    11     5    21 1   
    12     5    22 1   
    13     5    26 1   
    14     6     7 1   
    15     6     8 1   
    16     7    15 ar  
    17     8     9 1   
    18     8    13 1   
    19     8    27 1   
    20     9    10 1   
    21     9    28 1   
    22     9    29 1   
    23    10    11 1   
    24    10    14 1   
    25    10    30 1   
    26    11    12 1   
    27    11    31 1   
    28    11    32 1   
    29    12    13 1   
    30    12    33 1   
    31    12    34 1   
    32    13    14 1   
    33    13    35 1   
    34    14    36 1   
    35    14    37 1   
    36    15    16 ar  
    37    15    38 1   
    38    16    17 ar  
    39    16    19 1   
    40    17    18 ar  
    41    17    39 1   
    42    18    40 1   
    43    19    20 1   
    44    19    22 1   
    45    19    41 1   
    46    20    42 1   
    47    20    43 1   
    48    21    47 2   
    49    22    44 1   
    50    22    45 1   
@<TRIPOS>SUBSTRUCTURE
     1 0CP         1 TEMP              0 ****  ****    0 ROOT
