@<TRIPOS>MOLECULE
0CP
   47    50     1     0     0
SMALL
abcg2


@<TRIPOS>ATOM
      1 C1           1.8080     4.5050    -0.0640 c3         1 0CP       0.144900
      2 N1          -4.7150    -0.8910     1.0600 ns         1 0CP      -0.530400
      3 O1           1.9290     3.1090     0.1070 os         1 0CP      -0.319100
      4 C2           0.8030     2.3690     0.0860 ca         1 0CP       0.112100
      5 N2          -4.4880    -1.1240    -1.2180 ns         1 0CP      -0.530400
      6 O2           2.2540     0.5780     0.4270 os         1 0CP      -0.326100
      7 C3           0.9820     0.9800     0.2560 ca         1 0CP       0.124100
      8 C4           2.5380    -0.8120     0.5320 c5         1 0CP       0.164300
      9 C5           2.3480    -1.5670    -0.8100 c5         1 0CP      -0.108400
     10 C6           3.7710    -2.0180    -1.1690 c5         1 0CP      -0.074700
     11 C7           4.1610    -3.1570    -0.2190 c5         1 0CP      -0.081400
     12 C8           4.3030    -2.4280     1.1420 c5         1 0CP      -0.081400
     13 C9           4.0380    -0.9560     0.7910 c5         1 0CP      -0.067700
     14 C10          4.6140    -0.8600    -0.6260 c5         1 0CP      -0.079400
     15 C11         -0.1260     0.1470     0.2460 ca         1 0CP      -0.166000
     16 C12         -1.4170     0.6510     0.0670 ca         1 0CP      -0.085300
     17 C13         -1.5790     2.0170    -0.0960 ca         1 0CP      -0.107000
     18 C14         -0.4760     2.8690    -0.0860 ca         1 0CP      -0.169000
     19 C15         -2.5860    -0.2970     0.0500 c6         1 0CP      -0.042400
     20 C16         -3.5810    -0.0020     1.1670 c6         1 0CP       0.119500
     21 C17         -5.2140    -1.3810    -0.1010 c          1 0CP       0.615000
     22 C18         -3.3330    -0.2570    -1.2790 c6         1 0CP       0.119500
     23 H1           1.3710     4.7630    -1.0330 h1         1 0CP       0.040033
     24 H1A          1.2050     4.9640     0.7240 h1         1 0CP       0.040033
     25 H1B          2.8160     4.9110    -0.0150 h1         1 0CP       0.040033
     26 HN2         -4.8870    -1.4460    -2.0830 hn         1 0CP       0.329500
     27 H4           1.9460    -1.2420     1.3490 h1         1 0CP       0.050700
     28 H5           1.6570    -2.4070    -0.7240 hc         1 0CP       0.054200
     29 H5A          1.9410    -0.8970    -1.5710 hc         1 0CP       0.054200
     30 H6           3.8990    -2.2570    -2.2260 hc         1 0CP       0.068700
     31 H7           3.4120    -3.9500    -0.1980 hc         1 0CP       0.044700
     32 H7A          5.1060    -3.6100    -0.5240 hc         1 0CP       0.044700
     33 H8           3.6070    -2.8040     1.8970 hc         1 0CP       0.046200
     34 H8A          5.3080    -2.5430     1.5510 hc         1 0CP       0.046200
     35 H9           4.4160    -0.2530     1.5350 hc         1 0CP       0.081700
     36 H10          5.6890    -1.0530    -0.6640 hc         1 0CP       0.057700
     37 H10A         4.4160     0.0960    -1.1150 hc         1 0CP       0.057700
     38 H11         -0.0060    -0.9210     0.3730 ha         1 0CP       0.121000
     39 H13         -2.5630     2.4470    -0.2380 ha         1 0CP       0.114000
     40 H14         -0.6400     3.9300    -0.2160 ha         1 0CP       0.120000
     41 H15         -2.2090    -1.3140     0.1950 hc         1 0CP       0.071700
     42 H16         -3.8930     1.0480     1.1190 h1         1 0CP       0.042950
     43 H16A        -3.1110    -0.1540     2.1390 h1         1 0CP       0.042950
     44 H18         -2.6850    -0.6000    -2.0850 h1         1 0CP       0.042950
     45 H18A        -3.6240     0.7740    -1.5120 h1         1 0CP       0.042950
     46 HN1         -5.2810    -1.0390     1.8790 hn         1 0CP       0.329500
     47 O3          -6.2460    -2.0520    -0.1360 o          1 0CP      -0.614000
@<TRIPOS>BOND
     1     1     3 1   
     2     1    23 1   
     3     1    24 1   
     4     1    25 1   
     5     2    20 1   
     6     2    21 1   
     7     2    46 1   
     8     3     4 1   
     9     4     7 ar  
    10     4    18 ar  
    11     5    21 1   
    12     5    22 1   
    13     5    26 1   
    14     6     7 1   
    15     6     8 1   
    16     7    15 ar  
    17     8     9 1   
    18     8    13 1   
    19     8    27 1   
    20     9    10 1   
    21     9    28 1   
    22     9    29 1   
    23    10    11 1   
    24    10    14 1   
    25    10    30 1   
    26    11    12 1   
    27    11    31 1   
    28    11    32 1   
    29    12    13 1   
    30    12    33 1   
    31    12    34 1   
    32    13    14 1   
    33    13    35 1   
    34    14    36 1   
    35    14    37 1   
    36    15    16 ar  
    37    15    38 1   
    38    16    17 ar  
    39    16    19 1   
    40    17    18 ar  
    41    17    39 1   
    42    18    40 1   
    43    19    20 1   
    44    19    22 1   
    45    19    41 1   
    46    20    42 1   
    47    20    43 1   
    48    21    47 2   
    49    22    44 1   
    50    22    45 1   
@<TRIPOS>SUBSTRUCTURE
     1 0CP         1 TEMP              0 ****  ****    0 ROOT
