@<TRIPOS>MOLECULE
0CR
  175   188     1     0     0
SMALL
No Charge or Current Charge


@<TRIPOS>ATOM
      1 N1          20.6980    -7.7830    22.7450 n8         1 0CR      -1.005100
      2 N2          17.6320     0.0020    30.0790 nc         1 0CR      -0.362000
      3 N3          17.5290    -0.4620    28.8580 nd         1 0CR      -0.226800
      4 C01         23.0710    -4.0030    35.9500 c3         1 0CR       0.001200
      5 C02         22.4590    -3.0530    34.9120 ca         1 0CR      -0.022300
      6 C03         21.3510    -3.5140    34.1670 ca         1 0CR      -0.181000
      7 C04         20.6840    -2.6790    33.2420 ca         1 0CR       0.095100
      8 C05         21.1260    -1.3390    33.0840 ca         1 0CR       0.077100
      9 C06         22.2480    -0.8950    33.7970 ca         1 0CR      -0.093000
     10 C07         22.9190    -1.7260    34.7160 ca         1 0CR      -0.074300
     11 C08         24.0820    -1.1170    35.5030 c3         1 0CR       0.015200
     12 C09         25.4460    -1.3210    34.8360 ca         1 0CR      -0.048300
     13 C10         25.7590    -0.4970    33.7350 ca         1 0CR      -0.162000
     14 C11         27.0130    -0.5790    33.0970 ca         1 0CR       0.103100
     15 C12         27.9910    -1.4570    33.6080 ca         1 0CR       0.089100
     16 C13         27.6690    -2.3180    34.6660 ca         1 0CR      -0.109000
     17 C14         26.3990    -2.2770    35.2790 ca         1 0CR      -0.069300
     18 C15         26.0960    -3.3330    36.3440 c3         1 0CR       0.006200
     19 C16         25.5880    -4.6070    35.6640 ca         1 0CR      -0.039300
     20 C17         26.5610    -5.5260    35.2160 ca         1 0CR      -0.117000
     21 C18         26.2070    -6.6830    34.5110 ca         1 0CR       0.072100
     22 C19         24.8400    -6.9400    34.2460 ca         1 0CR       0.076100
     23 C20         23.8650    -6.0350    34.6930 ca         1 0CR      -0.111000
     24 C21         24.2140    -4.8730    35.4130 ca         1 0CR      -0.049300
     25 C22         26.2180    -3.2280    26.5060 c3         1 0CR       0.012200
     26 C23         26.6290    -4.3020    27.5200 ca         1 0CR      -0.022300
     27 C24         27.6720    -3.9870    28.4180 ca         1 0CR      -0.177000
     28 C25         28.0810    -4.8940    29.4210 ca         1 0CR       0.146100
     29 C26         27.4490    -6.1580    29.4970 ca         1 0CR       0.050100
     30 C27         26.4590    -6.4970    28.5690 ca         1 0CR      -0.098000
     31 C28         26.0150    -5.5810    27.5970 ca         1 0CR      -0.124300
     32 C29         24.7910    -5.9900    26.7750 c3         1 0CR       0.028200
     33 C30         23.5390    -5.7050    27.6050 ca         1 0CR      -0.035300
     34 C31         23.1600    -6.6720    28.5600 ca         1 0CR      -0.175000
     35 C32         22.1210    -6.4350    29.4860 ca         1 0CR       0.096100
     36 C33         21.4310    -5.1930    29.4340 ca         1 0CR       0.089100
     37 C34         21.7860    -4.2540    28.4540 ca         1 0CR      -0.106000
     38 C35         22.8260    -4.4830    27.5360 ca         1 0CR      -0.076300
     39 C36         23.1230    -3.3820    26.5140 c3         1 0CR       0.029200
     40 C37         23.9040    -2.2070    27.1130 ca         1 0CR      -0.053300
     41 C38         23.1590    -1.1430    27.6650 ca         1 0CR      -0.194000
     42 C39         23.7970    -0.0110    28.2140 ca         1 0CR       0.120100
     43 C40         25.2040     0.0530    28.2160 ca         1 0CR       0.072100
     44 C41         25.9550    -1.0030    27.6680 ca         1 0CR      -0.100000
     45 C42         25.3240    -2.1380    27.1130 ca         1 0CR      -0.076300
     46 C46         20.2790    -5.3460    31.6330 c3         1 0CR       0.139600
     47 C47         19.2130    -4.5240    32.3980 c3         1 0CR       0.151600
     48 C52         26.8770     1.0180    29.7350 c3         1 0CR       0.149600
     49 C57         27.3760    -7.9200    32.7280 c3         1 0CR       0.138600
     50 C60         26.2320     0.5290    31.0500 c3         1 0CR       0.126600
     51 O01         19.6120    -3.1380    32.4920 os         1 0CR      -0.352100
     52 O02         20.5190    -0.4160    32.2470 os         1 0CR      -0.357100
     53 O03         21.7820    -7.3950    30.4260 os         1 0CR      -0.346100
     54 O04         27.2850     0.1450    31.9510 os         1 0CR      -0.355100
     55 O05         29.2430    -1.5450    33.0390 os         1 0CR      -0.344100
     56 O06         23.0830     1.0370    28.7720 os         1 0CR      -0.325100
     57 O07         27.2290    -7.5220    34.1090 os         1 0CR      -0.370100
     58 O08         24.4090    -8.1100    33.6590 os         1 0CR      -0.372100
     59 O09         29.0890    -4.5840    30.3170 os         1 0CR      -0.337100
     60 O10         27.7120    -7.0760    30.4920 os         1 0CR      -0.359100
     61 O11         20.4090    -4.8210    30.2960 os         1 0CR      -0.373100
     62 O12         25.8350     1.1620    28.7480 os         1 0CR      -0.340100
     63 C61         20.7190    -6.0480    24.7630 ca         1 0CR      -0.274500
     64 C62         20.3260    -4.7570    24.3580 ca         1 0CR      -0.008000
     65 C64         19.5200    -3.9690    25.1980 ca         1 0CR      -0.126000
     66 C65         19.1020    -4.4570    26.4540 ca         1 0CR      -0.026300
     67 C66         19.4670    -5.7630    26.8330 ca         1 0CR      -0.126000
     68 C67         20.2780    -6.5530    26.0020 ca         1 0CR      -0.008000
     69 C68         18.3070    -3.5870    27.4270 c3         1 0CR      -0.064100
     70 C69         18.7380    -2.1000    27.4220 c3         1 0CR       0.077600
     71 O13         22.5640    -6.1770    22.8180 o          1 0CR      -0.546000
     72 O14         22.3750    -8.1270    24.4790 o          1 0CR      -0.546000
     73 S1          21.7840    -7.0340    23.7110 sy         1 0CR       1.124600
     74 C70         27.6840    -6.6710    31.8740 c3         1 0CR       0.133600
     75 C71         18.6730    -0.6340    30.7000 cc         1 0CR       0.185300
     76 C72         19.2410    -1.5350    29.8580 cd         1 0CR      -0.171000
     77 N4          18.5100    -1.4080    28.7000 na         1 0CR       0.115800
     78 CT5         30.1170    -0.3990    33.0610 c3         1 0CR       0.157300
     79 CN5         31.1240    -0.5210    31.9440 cc         1 0CR       0.163300
     80 CN6         31.0800     0.0790    30.7240 cd         1 0CR      -0.180000
     81 NN7         32.2520    -1.2860    32.0600 nc         1 0CR      -0.379000
     82 NN8         32.9260    -1.1970    30.9400 nd         1 0CR      -0.201800
     83 NN9         32.2210    -0.3720    30.0980 na         1 0CR       0.158800
     84 CI5         32.7470    -0.0130    28.7640 c3         1 0CR       0.094600
     85 CI6         31.7010     0.4020    27.6990 c3         1 0CR      -0.236400
     86 CO5         30.7710    -0.7720    27.3840 c          1 0CR       0.721000
     87 O51         31.1500    -1.5970    26.5680 o          1 0CR      -0.731500
     88 O52         29.7140    -0.8420    27.9860 o          1 0CR      -0.731500
     89 CO3         22.5570    -6.2420    40.4510 c          1 0CR       0.727000
     90 O31         21.4230    -6.2210    40.9030 o          1 0CR      -0.731500
     91 O32         23.5550    -5.9830    41.1030 o          1 0CR      -0.731500
     92 CI4         22.7430    -6.7060    39.0070 c3         1 0CR      -0.241400
     93 NN4         22.5630    -9.8420    35.8340 nc         1 0CR      -0.376000
     94 NN5         22.1270    -9.5540    37.0350 nd         1 0CR      -0.221800
     95 NN6         23.0940    -8.7990    37.6510 na         1 0CR       0.145800
     96 CT3         24.5610    -9.3570    34.3720 c3         1 0CR       0.158300
     97 CN3         23.7980    -9.2750    35.6770 cc         1 0CR       0.122300
     98 CN4         24.1720    -8.6290    36.8150 cd         1 0CR      -0.183000
     99 HN1         20.9690    -8.7560    22.8680 hn         1 0CR       0.470000
    100 HN1A        19.8380    -7.6990    23.2810 hn         1 0CR       0.470000
    101 H01         22.2820    -4.6730    36.3120 hc         1 0CR       0.076200
    102 H01A        23.3510    -3.4720    36.8610 hc         1 0CR       0.076200
    103 H03         21.0060    -4.5280    34.3370 ha         1 0CR       0.116000
    104 H06         22.5780     0.1300    33.6550 ha         1 0CR       0.122000
    105 H08         23.9130    -0.0370    35.5930 hc         1 0CR       0.061200
    106 H08A        24.0730    -1.4360    36.5470 hc         1 0CR       0.061200
    107 H10         25.0160     0.2100    33.3800 ha         1 0CR       0.113000
    108 H13         28.4150    -3.0320    35.0020 ha         1 0CR       0.124000
    109 H15         27.0170    -3.5620    36.8940 hc         1 0CR       0.076200
    110 H15A        25.4280    -2.9750    37.1280 hc         1 0CR       0.076200
    111 H17         27.6140    -5.3340    35.4010 ha         1 0CR       0.123000
    112 H20         22.8180    -6.2660    34.5140 ha         1 0CR       0.121000
    113 H22         27.1310    -2.7570    26.1210 hc         1 0CR       0.058700
    114 H22A        25.7770    -3.6550    25.6030 hc         1 0CR       0.058700
    115 H24         28.1450    -3.0140    28.3380 ha         1 0CR       0.171000
    116 H27         25.9870    -7.4710    28.6540 ha         1 0CR       0.102000
    117 H29         24.7650    -5.5360    25.7840 hc         1 0CR       0.043200
    118 H29A        24.8440    -7.0650    26.5590 hc         1 0CR       0.043200
    119 H31         23.7070    -7.6070    28.5840 ha         1 0CR       0.116000
    120 H34         21.2480    -3.3160    28.4170 ha         1 0CR       0.109000
    121 H36         23.5960    -3.7640    25.6080 hc         1 0CR       0.039200
    122 H36A        22.1650    -3.0050    26.1370 hc         1 0CR       0.039200
    123 H38         22.0770    -1.2050    27.6510 ha         1 0CR       0.098000
    124 H41         27.0390    -0.9310    27.6490 ha         1 0CR       0.186000
    125 H46         21.2400    -5.3050    32.1610 h1         1 0CR       0.062200
    126 H47         18.2640    -4.6000    31.8530 h1         1 0CR       0.057700
    127 H51         22.1470    -9.1590    31.4870 h1         1 0CR       0.042367
    128 H51A        22.5760    -9.2220    29.7650 h1         1 0CR       0.042367
    129 H51B        23.6010    -8.3170    30.9130 h1         1 0CR       0.042367
    130 H52         27.3670     1.9820    29.9180 h1         1 0CR       0.073200
    131 H56         30.5280    -3.2950    31.1060 h1         1 0CR       0.063033
    132 H56A        30.3170    -3.1870    29.3480 h1         1 0CR       0.063033
    133 H56B        29.0930    -2.4890    30.4430 h1         1 0CR       0.063033
    134 H57         28.2050    -8.6320    32.6290 h1         1 0CR       0.052200
    135 H57A        26.4700    -8.4090    32.3510 h1         1 0CR       0.052200
    136 H58         18.5520    -0.9490    32.8260 h1         1 0CR       0.054200
    137 H58A        18.7760     0.7290    32.3360 h1         1 0CR       0.054200
    138 H59         21.3090     1.8940    29.4660 h1         1 0CR       0.037700
    139 H59A        21.1290     0.8660    28.0290 h1         1 0CR       0.037700
    140 H59B        21.4080     0.1290    29.6300 h1         1 0CR       0.037700
    141 H60         25.6160     1.3310    31.4780 h1         1 0CR       0.046200
    142 H62         20.6510    -4.3560    23.3990 ha         1 0CR       0.137000
    143 H64         19.2380    -2.9720    24.8690 ha         1 0CR       0.128000
    144 H66         19.1520    -6.1590    27.7960 ha         1 0CR       0.128000
    145 H67         20.5720    -7.5480    26.3350 ha         1 0CR       0.137000
    146 H68         17.2340    -3.6520    27.2110 hc         1 0CR       0.073200
    147 H68A        18.4340    -3.9810    28.4430 hc         1 0CR       0.073200
    148 H69         19.8100    -2.0320    27.2060 h1         1 0CR       0.076700
    149 H69A        18.2100    -1.5650    26.6220 h1         1 0CR       0.076700
    150 H70         28.6420    -6.2370    32.1840 h1         1 0CR       0.062200
    151 H70A        26.8940    -5.9250    32.0330 h1         1 0CR       0.062200
    152 H72         20.0740    -2.2090    29.9940 h4         1 0CR       0.195000
    153 HT5         29.5580     0.5340    32.9210 h1         1 0CR       0.039200
    154 HT5A        30.6350    -0.3310    34.0260 h1         1 0CR       0.039200
    155 HN6         30.3570     0.7480    30.2770 h4         1 0CR       0.169000
    156 HI5         33.4520     0.8160    28.9030 h1         1 0CR       0.053700
    157 HI5A        33.3210    -0.8670    28.3830 h1         1 0CR       0.053700
    158 HI6         31.1430     1.2540    28.1040 hc         1 0CR       0.033700
    159 HI6A        32.2970     0.6530    26.8130 hc         1 0CR       0.033700
    160 HI3         23.7900    -8.5180    39.6030 h1         1 0CR       0.071700
    161 HI3A        22.0350    -8.7120    39.4600 h1         1 0CR       0.071700
    162 HI4         23.6650    -6.2910    38.5830 hc         1 0CR       0.037200
    163 HI4A        21.8460    -6.4970    38.4130 hc         1 0CR       0.037200
    164 HT3         24.1720   -10.1890    33.7710 h1         1 0CR       0.054200
    165 HT3A        25.6180    -9.5630    34.5840 h1         1 0CR       0.054200
    166 HN4         25.0550    -8.0560    37.0660 h4         1 0CR       0.173000
    167 H71         19.9420    -6.3890    31.6110 h1         1 0CR       0.062200
    168 H721        19.0480    -4.9560    33.3930 h1         1 0CR       0.057700
    169 H73         27.6450     0.3060    29.4090 h1         1 0CR       0.073200
    170 H74         25.5880    -0.3340    30.8400 h1         1 0CR       0.046200
    171 C58         19.0820    -0.3020    32.1180 c3         1 0CR       0.155300
    172 CI3         22.9140    -8.2430    39.0010 c3         1 0CR       0.093600
    173 C51         22.5670    -8.5800    30.6550 c3         1 0CR       0.149900
    174 C56         29.7870    -3.3270    30.2980 c3         1 0CR       0.127900
    175 C59         21.6630     0.9750    28.9810 c3         1 0CR       0.143900
@<TRIPOS>BOND
     1     1    73 1   
     2     1    99 1   
     3     1   100 1   
     4     2     3 2   
     5     2    75 1   
     6     3    77 1   
     7     4     5 1   
     8     4    24 1   
     9     4   101 1   
    10     4   102 1   
    11     5     6 ar  
    12     5    10 ar  
    13     6     7 ar  
    14     6   103 1   
    15     7     8 ar  
    16     7    51 1   
    17     8     9 ar  
    18     8    52 1   
    19     9    10 ar  
    20     9   104 1   
    21    10    11 1   
    22    11    12 1   
    23    11   105 1   
    24    11   106 1   
    25    12    13 ar  
    26    12    17 ar  
    27    13    14 ar  
    28    13   107 1   
    29    14    15 ar  
    30    14    54 1   
    31    15    16 ar  
    32    15    55 1   
    33    16    17 ar  
    34    16   108 1   
    35    17    18 1   
    36    18    19 1   
    37    18   109 1   
    38    18   110 1   
    39    19    20 ar  
    40    19    24 ar  
    41    20    21 ar  
    42    20   111 1   
    43    21    22 ar  
    44    21    57 1   
    45    22    23 ar  
    46    22    58 1   
    47    23    24 ar  
    48    23   112 1   
    49    25    26 1   
    50    25    45 1   
    51    25   113 1   
    52    25   114 1   
    53    26    27 ar  
    54    26    31 ar  
    55    27    28 ar  
    56    27   115 1   
    57    28    29 ar  
    58    28    59 1   
    59    29    30 ar  
    60    29    60 1   
    61    30    31 ar  
    62    30   116 1   
    63    31    32 1   
    64    32    33 1   
    65    32   117 1   
    66    32   118 1   
    67    33    34 ar  
    68    33    38 ar  
    69    34    35 ar  
    70    34   119 1   
    71    35    36 ar  
    72    35    53 1   
    73    36    37 ar  
    74    36    61 1   
    75    37    38 ar  
    76    37   120 1   
    77    38    39 1   
    78    39    40 1   
    79    39   121 1   
    80    39   122 1   
    81    40    41 ar  
    82    40    45 ar  
    83    41    42 ar  
    84    41   123 1   
    85    42    43 ar  
    86    42    56 1   
    87    43    44 ar  
    88    43    62 1   
    89    44    45 ar  
    90    44   124 1   
    91    46    47 1   
    92    46    61 1   
    93    46   125 1   
    94    46   167 1   
    95    47    51 1   
    96    47   126 1   
    97    47   168 1   
    98    48    50 1   
    99    48    62 1   
   100    48   130 1   
   101    48   169 1   
   102    49    57 1   
   103    49    74 1   
   104    49   134 1   
   105    49   135 1   
   106    50    54 1   
   107    50   141 1   
   108    50   170 1   
   109    52   171 1   
   110    53   173 1   
   111    55    78 1   
   112    56   175 1   
   113    58    96 1   
   114    59   174 1   
   115    60    74 1   
   116    63    64 ar  
   117    63    68 ar  
   118    63    73 1   
   119    64    65 ar  
   120    64   142 1   
   121    65    66 ar  
   122    65   143 1   
   123    66    67 ar  
   124    66    69 1   
   125    67    68 ar  
   126    67   144 1   
   127    68   145 1   
   128    69    70 1   
   129    69   146 1   
   130    69   147 1   
   131    70    77 1   
   132    70   148 1   
   133    70   149 1   
   134    71    73 2   
   135    72    73 2   
   136    74   150 1   
   137    74   151 1   
   138    75    76 2   
   139    75   171 1   
   140    76    77 1   
   141    76   152 1   
   142    78    79 1   
   143    78   153 1   
   144    78   154 1   
   145    79    80 2   
   146    79    81 1   
   147    80    83 1   
   148    80   155 1   
   149    81    82 2   
   150    82    83 1   
   151    83    84 1   
   152    84    85 1   
   153    84   156 1   
   154    84   157 1   
   155    85    86 1   
   156    85   158 1   
   157    85   159 1   
   158    86    87 1   
   159    86    88 1   
   160    89    90 1   
   161    89    91 1   
   162    89    92 1   
   163    92   162 1   
   164    92   163 1   
   165    92   172 1   
   166    93    94 2   
   167    93    97 1   
   168    94    95 1   
   169    95    98 1   
   170    95   172 1   
   171    96    97 1   
   172    96   164 1   
   173    96   165 1   
   174    97    98 2   
   175    98   166 1   
   176   127   173 1   
   177   128   173 1   
   178   129   173 1   
   179   131   174 1   
   180   132   174 1   
   181   133   174 1   
   182   136   171 1   
   183   137   171 1   
   184   138   175 1   
   185   139   175 1   
   186   140   175 1   
   187   160   172 1   
   188   161   172 1   
@<TRIPOS>SUBSTRUCTURE
     1 0CR         1 TEMP              0 ****  ****    0 ROOT
