@<TRIPOS>MOLECULE
0CR
  175   188     1     0     0
SMALL
abcg2


@<TRIPOS>ATOM
      1 N1          17.8030    -7.2190    21.5780 n8         1 0CR      -1.005100
      2 N2          18.5800     0.2020    29.4480 nc         1 0CR      -0.362000
      3 N3          18.4740    -0.2280    28.2360 nd         1 0CR      -0.226800
      4 C01         22.8450    -4.0670    36.0210 c3         1 0CR       0.001200
      5 C02         22.3320    -3.1600    34.9270 ca         1 0CR      -0.022300
      6 C03         21.3680    -3.6820    34.0590 ca         1 0CR      -0.181000
      7 C04         20.8640    -2.9560    32.9920 ca         1 0CR       0.095100
      8 C05         21.2980    -1.6330    32.8220 ca         1 0CR       0.077100
      9 C06         22.2320    -1.1120    33.6930 ca         1 0CR      -0.093000
     10 C07         22.7900    -1.8600    34.7320 ca         1 0CR      -0.074300
     11 C08         23.8840    -1.2240    35.5540 c3         1 0CR       0.015200
     12 C09         25.2500    -1.3980    34.9250 ca         1 0CR      -0.048300
     13 C10         25.6050    -0.5260    33.8950 ca         1 0CR      -0.162000
     14 C11         26.8330    -0.6010    33.2590 ca         1 0CR       0.103100
     15 C12         27.7640    -1.5470    33.6990 ca         1 0CR       0.089100
     16 C13         27.4150    -2.4120    34.7180 ca         1 0CR      -0.109000
     17 C14         26.1580    -2.3810    35.3230 ca         1 0CR      -0.069300
     18 C15         25.8410    -3.4540    36.3390 c3         1 0CR       0.006200
     19 C16         25.3060    -4.7080    35.6800 ca         1 0CR      -0.039300
     20 C17         26.2310    -5.6300    35.1920 ca         1 0CR      -0.117000
     21 C18         25.8470    -6.8220    34.6000 ca         1 0CR       0.072100
     22 C19         24.4890    -7.1220    34.5030 ca         1 0CR       0.076100
     23 C20         23.5650    -6.1980    34.9620 ca         1 0CR      -0.111000
     24 C21         23.9430    -4.9890    35.5400 ca         1 0CR      -0.049300
     25 C22         26.7350    -3.6230    26.8890 c3         1 0CR       0.012200
     26 C23         27.1660    -4.5820    27.9760 ca         1 0CR      -0.022300
     27 C24         28.2010    -4.1750    28.8260 ca         1 0CR      -0.177000
     28 C25         28.6350    -4.9680    29.8780 ca         1 0CR       0.146100
     29 C26         28.0270    -6.2170    30.0760 ca         1 0CR       0.050100
     30 C27         27.0240    -6.6240    29.2240 ca         1 0CR      -0.098000
     31 C28         26.5720    -5.8260    28.1690 ca         1 0CR      -0.124300
     32 C29         25.4290    -6.3490    27.3300 c3         1 0CR       0.028200
     33 C30         24.1050    -6.1000    28.0110 ca         1 0CR      -0.035300
     34 C31         23.6680    -7.0640    28.9210 ca         1 0CR      -0.175000
     35 C32         22.5030    -6.9200    29.6560 ca         1 0CR       0.096100
     36 C33         21.7550    -5.7400    29.5020 ca         1 0CR       0.089100
     37 C34         22.1780    -4.8010    28.5780 ca         1 0CR      -0.106000
     38 C35         23.3360    -4.9550    27.8120 ca         1 0CR      -0.076300
     39 C36         23.6690    -3.8820    26.7950 c3         1 0CR       0.029200
     40 C37         24.3910    -2.6720    27.3490 ca         1 0CR      -0.053300
     41 C38         23.6100    -1.6030    27.8050 ca         1 0CR      -0.194000
     42 C39         24.1760    -0.4410    28.3130 ca         1 0CR       0.120100
     43 C40         25.5720    -0.3430    28.3630 ca         1 0CR       0.072100
     44 C41         26.3430    -1.3850    27.8910 ca         1 0CR      -0.100000
     45 C42         25.7810    -2.5590    27.3850 ca         1 0CR      -0.076300
     46 C46         20.5090    -5.7320    31.5590 c3         1 0CR       0.139600
     47 C47         19.5190    -4.7490    32.1400 c3         1 0CR       0.151600
     48 C52         27.0090     0.6820    29.9300 c3         1 0CR       0.149600
     49 C57         27.0490    -7.8150    32.8160 c3         1 0CR       0.138600
     50 C60         26.2340     0.4290    31.2150 c3         1 0CR       0.126600
     51 O01         19.9650    -3.4070    32.0930 os         1 0CR      -0.352100
     52 O02         20.8850    -0.8730    31.7760 os         1 0CR      -0.357100
     53 O03         22.0200    -7.8540    30.4980 os         1 0CR      -0.346100
     54 O04         27.1940     0.2120    32.2400 os         1 0CR      -0.355100
     55 O05         28.9810    -1.6330    33.0970 os         1 0CR      -0.344100
     56 O06         23.4890     0.6300    28.7500 os         1 0CR      -0.325100
     57 O07         26.7860    -7.7290    34.2120 os         1 0CR      -0.370100
     58 O08         24.0580    -8.3210    34.0200 os         1 0CR      -0.372100
     59 O09         29.6160    -4.6450    30.7380 os         1 0CR      -0.337100
     60 O10         28.4810    -7.0470    31.0550 os         1 0CR      -0.359100
     61 O11         20.5860    -5.5140    30.1540 os         1 0CR      -0.373100
     62 O12         26.1250     0.8140    28.8290 os         1 0CR      -0.340100
     63 C61         18.7840    -5.3320    23.1430 ca         1 0CR      -0.274500
     64 C62         17.6450    -4.6010    23.4580 ca         1 0CR      -0.008000
     65 C64         17.5290    -4.0500    24.7210 ca         1 0CR      -0.126000
     66 C65         18.5360    -4.2210    25.6710 ca         1 0CR      -0.026300
     67 C66         19.6670    -4.9560    25.3320 ca         1 0CR      -0.126000
     68 C67         19.7990    -5.5160    24.0700 ca         1 0CR      -0.008000
     69 C68         18.4240    -3.5600    27.0140 c3         1 0CR      -0.064100
     70 C69         19.0690    -2.1780    26.9480 c3         1 0CR       0.077600
     71 O13         18.4370    -5.0540    20.5410 o          1 0CR      -0.546000
     72 O14         20.2920    -6.5140    21.3650 o          1 0CR      -0.546000
     73 S1          18.9330    -6.0130    21.5170 sy         1 0CR       1.124600
     74 C70         28.0670    -6.7660    32.3870 c3         1 0CR       0.133600
     75 C71         19.1320    -0.7610    30.2140 cc         1 0CR       0.185300
     76 C72         19.3800    -1.8460    29.4120 cd         1 0CR      -0.171000
     77 N4          18.9580    -1.4580    28.2000 na         1 0CR       0.115800
     78 CT5         29.9600    -0.7070    33.5750 c3         1 0CR       0.157300
     79 CN5         30.8990    -0.3870    32.4710 cc         1 0CR       0.163300
     80 CN6         30.7160     0.4510    31.4000 cd         1 0CR      -0.180000
     81 NN7         32.1140    -0.9580    32.3420 nc         1 0CR      -0.379000
     82 NN8         32.6750    -0.5210    31.2660 nd         1 0CR      -0.201800
     83 NN9         31.8430     0.3270    30.6860 na         1 0CR       0.158800
     84 CI5         32.1930     0.9910    29.4400 c3         1 0CR       0.094600
     85 CI6         31.1150     0.8180    28.3870 c3         1 0CR      -0.236400
     86 CO5         30.8520    -0.6540    28.0090 c          1 0CR       0.721000
     87 O51         31.8340    -1.4180    28.0210 o          1 0CR      -0.731500
     88 O52         29.6780    -0.9450    27.6970 o          1 0CR      -0.731500
     89 CO3         24.0190    -4.9030    40.1450 c          1 0CR       0.727000
     90 O31         24.0410    -5.3550    41.3050 o          1 0CR      -0.731500
     91 O32         24.1420    -3.7100    39.7960 o          1 0CR      -0.731500
     92 CI4         23.8130    -5.9070    38.9990 c3         1 0CR      -0.241400
     93 NN4         22.4320    -9.0450    36.6480 nc         1 0CR      -0.376000
     94 NN5         22.3270    -8.5130    37.8170 nd         1 0CR      -0.221800
     95 NN6         23.5420    -8.2010    38.2380 na         1 0CR       0.145800
     96 CT3         24.1980    -9.4320    34.9280 c3         1 0CR       0.158300
     97 CN3         23.7350    -9.0760    36.2910 cc         1 0CR       0.122300
     98 CN4         24.4600    -8.5300    37.3210 cd         1 0CR      -0.183000
     99 HN1         17.5390    -7.5300    20.6470 hn         1 0CR       0.470000
    100 HN1A        18.1040    -8.0080    22.1410 hn         1 0CR       0.470000
    101 H01         22.0140    -4.6820    36.3730 hc         1 0CR       0.076200
    102 H01A        23.1680    -3.4980    36.8910 hc         1 0CR       0.076200
    103 H03         21.0270    -4.6940    34.2370 ha         1 0CR       0.116000
    104 H06         22.5490    -0.0870    33.5400 ha         1 0CR       0.122000
    105 H08         23.6800    -0.1550    35.6360 hc         1 0CR       0.061200
    106 H08A        23.8800    -1.6010    36.5750 hc         1 0CR       0.061200
    107 H10         24.8980     0.2350    33.5850 ha         1 0CR       0.113000
    108 H13         28.1440    -3.1510    35.0350 ha         1 0CR       0.124000
    109 H15         26.7620    -3.7170    36.8640 hc         1 0CR       0.076200
    110 H15A        25.1610    -3.0960    37.1110 hc         1 0CR       0.076200
    111 H17         27.2920    -5.4330    35.3020 ha         1 0CR       0.123000
    112 H20         22.5140    -6.4580    34.9030 ha         1 0CR       0.121000
    113 H22         27.6250    -3.1230    26.5020 hc         1 0CR       0.058700
    114 H22A        26.3110    -4.1620    26.0430 hc         1 0CR       0.058700
    115 H24         28.6770    -3.2210    28.6280 ha         1 0CR       0.171000
    116 H27         26.5880    -7.6040    29.3820 ha         1 0CR       0.102000
    117 H29         25.4460    -5.9260    26.3270 hc         1 0CR       0.043200
    118 H29A        25.5570    -7.4250    27.1960 hc         1 0CR       0.043200
    119 H31         24.2590    -7.9650    29.0270 ha         1 0CR       0.116000
    120 H34         21.5650    -3.9160    28.4400 ha         1 0CR       0.109000
    121 H36         24.2350    -4.3080    25.9660 hc         1 0CR       0.039200
    122 H36A        22.7290    -3.5410    26.3520 hc         1 0CR       0.039200
    123 H38         22.5330    -1.6980    27.7430 ha         1 0CR       0.098000
    124 H41         27.4220    -1.2710    27.8820 ha         1 0CR       0.186000
    125 H46         21.4910    -5.6270    32.0290 h1         1 0CR       0.062200
    126 H47         18.5940    -4.7700    31.5620 h1         1 0CR       0.057700
    127 H51         22.2470    -9.5990    31.4720 h1         1 0CR       0.042367
    128 H51A        22.9260    -9.6100    29.8350 h1         1 0CR       0.042367
    129 H51B        23.7780    -8.7660    31.1490 h1         1 0CR       0.042367
    130 H52         27.5640     1.6190    29.9920 h1         1 0CR       0.073200
    131 H56         31.0770    -3.3790    31.3010 h1         1 0CR       0.063033
    132 H56A        30.8560    -3.4710    29.5440 h1         1 0CR       0.063033
    133 H56B        29.7000    -2.5700    30.5430 h1         1 0CR       0.063033
    134 H57         27.4580    -8.8120    32.6430 h1         1 0CR       0.052200
    135 H57A        26.1300    -7.7250    32.2280 h1         1 0CR       0.052200
    136 H58         18.8850    -1.1770    32.3030 h1         1 0CR       0.054200
    137 H58A        19.3340     0.4810    31.9200 h1         1 0CR       0.054200
    138 H59         21.7270     1.5670    29.0180 h1         1 0CR       0.037700
    139 H59A        21.7600     0.5130    27.5910 h1         1 0CR       0.037700
    140 H59B        21.6360    -0.1890    29.2200 h1         1 0CR       0.037700
    141 H60         25.5910     1.2830    31.4500 h1         1 0CR       0.046200
    142 H62         16.8530    -4.4620    22.7330 ha         1 0CR       0.137000
    143 H64         16.6460    -3.4780    24.9740 ha         1 0CR       0.128000
    144 H66         20.4570    -5.0960    26.0610 ha         1 0CR       0.128000
    145 H67         20.6830    -6.0850    23.8200 ha         1 0CR       0.137000
    146 H68         17.3760    -3.4580    27.3020 hc         1 0CR       0.073200
    147 H68A        18.9190    -4.1680    27.7740 hc         1 0CR       0.073200
    148 H69         20.1260    -2.2640    26.6890 h1         1 0CR       0.076700
    149 H69A        18.5870    -1.5630    26.1890 h1         1 0CR       0.076700
    150 H70         28.9460    -6.8160    33.0340 h1         1 0CR       0.062200
    151 H70A        27.6470    -5.7590    32.4720 h1         1 0CR       0.062200
    152 H72         19.8170    -2.8100    29.6050 h4         1 0CR       0.195000
    153 HT5         29.4800     0.2070    33.9340 h1         1 0CR       0.039200
    154 HT5A        30.5080    -1.1450    34.4140 h1         1 0CR       0.039200
    155 HN6         29.9040     1.0990    31.1170 h4         1 0CR       0.169000
    156 HI5         32.3700     2.0460    29.6500 h1         1 0CR       0.053700
    157 HI5A        33.1310     0.5500    29.1110 h1         1 0CR       0.053700
    158 HI6         30.1900     1.3100    28.6960 hc         1 0CR       0.033700
    159 HI6A        31.4500     1.3540    27.4930 hc         1 0CR       0.033700
    160 HI3         24.6450    -7.6960    39.9130 h1         1 0CR       0.071700
    161 HI3A        22.8990    -7.5540    40.0880 h1         1 0CR       0.071700
    162 HI4         24.6230    -5.7800    38.2750 hc         1 0CR       0.037200
    163 HI4A        22.8970    -5.6390    38.4640 hc         1 0CR       0.037200
    164 HT3         23.5920   -10.2300    34.5010 h1         1 0CR       0.054200
    165 HT3A        25.2360    -9.7700    34.9580 h1         1 0CR       0.054200
    166 HN4         25.5140    -8.3440    37.4480 h4         1 0CR       0.173000
    167 H71         20.1410    -6.7370    31.7770 h1         1 0CR       0.062200
    168 H721        19.2650    -5.0530    33.1600 h1         1 0CR       0.057700
    169 H73         27.7340    -0.1220    29.7690 h1         1 0CR       0.073200
    170 H74         25.5940    -0.4530    31.1020 h1         1 0CR       0.046200
    171 C58         19.4990    -0.5640    31.6410 c3         1 0CR       0.155300
    172 CI3         23.7340    -7.3670    39.4160 c3         1 0CR       0.093600
    173 C51         22.7940    -9.0110    30.7400 c3         1 0CR       0.149900
    174 C56         30.3400    -3.4540    30.5060 c3         1 0CR       0.127900
    175 C59         22.0820     0.6140    28.6320 c3         1 0CR       0.143900
@<TRIPOS>BOND
     1     1    73 1   
     2     1    99 1   
     3     1   100 1   
     4     2     3 2   
     5     2    75 1   
     6     3    77 1   
     7     4     5 1   
     8     4    24 1   
     9     4   101 1   
    10     4   102 1   
    11     5     6 ar  
    12     5    10 ar  
    13     6     7 ar  
    14     6   103 1   
    15     7     8 ar  
    16     7    51 1   
    17     8     9 ar  
    18     8    52 1   
    19     9    10 ar  
    20     9   104 1   
    21    10    11 1   
    22    11    12 1   
    23    11   105 1   
    24    11   106 1   
    25    12    13 ar  
    26    12    17 ar  
    27    13    14 ar  
    28    13   107 1   
    29    14    15 ar  
    30    14    54 1   
    31    15    16 ar  
    32    15    55 1   
    33    16    17 ar  
    34    16   108 1   
    35    17    18 1   
    36    18    19 1   
    37    18   109 1   
    38    18   110 1   
    39    19    20 ar  
    40    19    24 ar  
    41    20    21 ar  
    42    20   111 1   
    43    21    22 ar  
    44    21    57 1   
    45    22    23 ar  
    46    22    58 1   
    47    23    24 ar  
    48    23   112 1   
    49    25    26 1   
    50    25    45 1   
    51    25   113 1   
    52    25   114 1   
    53    26    27 ar  
    54    26    31 ar  
    55    27    28 ar  
    56    27   115 1   
    57    28    29 ar  
    58    28    59 1   
    59    29    30 ar  
    60    29    60 1   
    61    30    31 ar  
    62    30   116 1   
    63    31    32 1   
    64    32    33 1   
    65    32   117 1   
    66    32   118 1   
    67    33    34 ar  
    68    33    38 ar  
    69    34    35 ar  
    70    34   119 1   
    71    35    36 ar  
    72    35    53 1   
    73    36    37 ar  
    74    36    61 1   
    75    37    38 ar  
    76    37   120 1   
    77    38    39 1   
    78    39    40 1   
    79    39   121 1   
    80    39   122 1   
    81    40    41 ar  
    82    40    45 ar  
    83    41    42 ar  
    84    41   123 1   
    85    42    43 ar  
    86    42    56 1   
    87    43    44 ar  
    88    43    62 1   
    89    44    45 ar  
    90    44   124 1   
    91    46    47 1   
    92    46    61 1   
    93    46   125 1   
    94    46   167 1   
    95    47    51 1   
    96    47   126 1   
    97    47   168 1   
    98    48    50 1   
    99    48    62 1   
   100    48   130 1   
   101    48   169 1   
   102    49    57 1   
   103    49    74 1   
   104    49   134 1   
   105    49   135 1   
   106    50    54 1   
   107    50   141 1   
   108    50   170 1   
   109    52   171 1   
   110    53   173 1   
   111    55    78 1   
   112    56   175 1   
   113    58    96 1   
   114    59   174 1   
   115    60    74 1   
   116    63    64 ar  
   117    63    68 ar  
   118    63    73 1   
   119    64    65 ar  
   120    64   142 1   
   121    65    66 ar  
   122    65   143 1   
   123    66    67 ar  
   124    66    69 1   
   125    67    68 ar  
   126    67   144 1   
   127    68   145 1   
   128    69    70 1   
   129    69   146 1   
   130    69   147 1   
   131    70    77 1   
   132    70   148 1   
   133    70   149 1   
   134    71    73 2   
   135    72    73 2   
   136    74   150 1   
   137    74   151 1   
   138    75    76 2   
   139    75   171 1   
   140    76    77 1   
   141    76   152 1   
   142    78    79 1   
   143    78   153 1   
   144    78   154 1   
   145    79    80 2   
   146    79    81 1   
   147    80    83 1   
   148    80   155 1   
   149    81    82 2   
   150    82    83 1   
   151    83    84 1   
   152    84    85 1   
   153    84   156 1   
   154    84   157 1   
   155    85    86 1   
   156    85   158 1   
   157    85   159 1   
   158    86    87 1   
   159    86    88 1   
   160    89    90 1   
   161    89    91 1   
   162    89    92 1   
   163    92   162 1   
   164    92   163 1   
   165    92   172 1   
   166    93    94 2   
   167    93    97 1   
   168    94    95 1   
   169    95    98 1   
   170    95   172 1   
   171    96    97 1   
   172    96   164 1   
   173    96   165 1   
   174    97    98 2   
   175    98   166 1   
   176   127   173 1   
   177   128   173 1   
   178   129   173 1   
   179   131   174 1   
   180   132   174 1   
   181   133   174 1   
   182   136   171 1   
   183   137   171 1   
   184   138   175 1   
   185   139   175 1   
   186   140   175 1   
   187   160   172 1   
   188   161   172 1   
@<TRIPOS>SUBSTRUCTURE
     1 0CR         1 TEMP              0 ****  ****    0 ROOT
