@<TRIPOS>MOLECULE
0CS
   16    15     1     0     0
SMALL
bcc


@<TRIPOS>ATOM
      1 N           27.8960     1.3730    19.5340 n8         1 0CS      -0.877800
      2 CA          28.5520     1.9900    20.6670 c3         1 0CS       0.031500
      3 CB          27.6280     2.7960    21.5900 c3         1 0CS      -0.063100
      4 C           29.2680     0.9310    21.5610 c          1 0CS       0.943600
      5 O           28.9690    -0.2600    21.3720 o          1 0CS      -0.823300
      6 SG          26.8430     4.2150    20.7820 s4         1 0CS       0.417700
      7 OD1         26.0690     4.9050    21.8400 o          1 0CS      -0.507200
      8 OD2         28.2050     5.1190    20.4120 os         1 0CS      -0.207800
      9 OD3         28.9490     5.4580    21.5650 oh         1 0CS      -0.391000
     10 OXT         30.0590     1.3970    22.4020 o          1 0CS      -0.823300
     11 H           27.3170     0.6090    19.8550 hn         1 0CS       0.323300
     12 H2          27.2970     2.0250    19.0440 hn         1 0CS       0.323300
     13 HA          29.3340     2.6560    20.2880 h1         1 0CS       0.049700
     14 HB2         26.7810     2.1820    21.9120 h1         1 0CS       0.091200
     15 HB3         28.1340     3.1640    22.4830 h1         1 0CS       0.091200
     16 HD3         29.7150     4.8660    21.4980 ho         1 0CS       0.422000
@<TRIPOS>BOND
     1     1     2 1   
     2     1    11 1   
     3     1    12 1   
     4     2     3 1   
     5     2     4 1   
     6     2    13 1   
     7     3     6 1   
     8     3    14 1   
     9     3    15 1   
    10     4     5 1   
    11     4    10 1   
    12     6     7 2   
    13     6     8 1   
    14     8     9 1   
    15     9    16 1   
@<TRIPOS>SUBSTRUCTURE
     1 0CS         1 TEMP              0 ****  ****    0 ROOT
