@<TRIPOS>MOLECULE
0CT
   14    15     1     0     0
SMALL
abcg2


@<TRIPOS>ATOM
      1 NAF         -1.4920     1.0470     0.0200 na         1 0CT      -0.070400
      2 CAH         -0.1800     0.7230     0.0040 ca         1 0CT      -0.078200
      3 CAC          1.0080     1.4580    -0.0160 ca         1 0CT      -0.115000
      4 CAA          2.1720     0.7220    -0.0270 ca         1 0CT      -0.075000
      5 CAB          2.1670    -0.6900    -0.0180 ca         1 0CT      -0.138000
      6 CAD          0.9930    -1.4060     0.0010 ca         1 0CT      -0.027000
      7 CAI         -0.2010    -0.6740     0.0130 ca         1 0CT       0.010400
      8 NAG         -1.5050    -1.0800     0.0330 nc         1 0CT      -0.222400
      9 NAE         -2.2490    -0.0410     0.0370 nd         1 0CT      -0.160400
     10 H1          -1.9260     1.9580     0.0230 hn         1 0CT       0.381000
     11 H2           1.0160     2.5390    -0.0220 ha         1 0CT       0.124000
     12 H3           3.1220     1.2400    -0.0430 ha         1 0CT       0.117000
     13 H4           3.1130    -1.2150    -0.0280 ha         1 0CT       0.119000
     14 H5           0.9880    -2.4870     0.0070 ha         1 0CT       0.135000
@<TRIPOS>BOND
     1     1     2 1   
     2     1     9 1   
     3     1    10 1   
     4     2     3 ar  
     5     2     7 ar  
     6     3     4 ar  
     7     3    11 1   
     8     4     5 ar  
     9     4    12 1   
    10     5     6 ar  
    11     5    13 1   
    12     6     7 ar  
    13     6    14 1   
    14     7     8 1   
    15     8     9 2   
@<TRIPOS>SUBSTRUCTURE
     1 0CT         1 TEMP              0 ****  ****    0 ROOT
