@<TRIPOS>MOLECULE
0CT
   14    15     1     0     0
SMALL
No Charge or Current Charge


@<TRIPOS>ATOM
      1 NAF         -1.4960     1.0680     0.0210 na         1 0CT      -0.070400
      2 CAH         -0.1890     0.6900     0.0050 ca         1 0CT      -0.078200
      3 CAC          0.9910     1.4430    -0.0150 ca         1 0CT      -0.115000
      4 CAA          2.2090     0.7310    -0.0280 ca         1 0CT      -0.075000
      5 CAB          2.2050    -0.6860    -0.0190 ca         1 0CT      -0.138000
      6 CAD          0.9850    -1.4010     0.0010 ca         1 0CT      -0.027000
      7 CAI         -0.2120    -0.6680     0.0130 ca         1 0CT       0.010400
      8 NAG         -1.5240    -1.1270     0.0340 nc         1 0CT      -0.222400
      9 NAE         -2.3140    -0.0510     0.0380 nd         1 0CT      -0.160400
     10 H1          -1.8770     2.0090     0.0200 hn         1 0CT       0.381000
     11 H2           0.9730     2.5310    -0.0210 ha         1 0CT       0.124000
     12 H3           3.1530     1.2720    -0.0430 ha         1 0CT       0.117000
     13 H4           3.1480    -1.2290    -0.0290 ha         1 0CT       0.119000
     14 H5           0.9720    -2.4880     0.0080 ha         1 0CT       0.135000
@<TRIPOS>BOND
     1     1     2 1   
     2     1     9 1   
     3     1    10 1   
     4     2     3 ar  
     5     2     7 ar  
     6     3     4 ar  
     7     3    11 1   
     8     4     5 ar  
     9     4    12 1   
    10     5     6 ar  
    11     5    13 1   
    12     6     7 ar  
    13     6    14 1   
    14     7     8 1   
    15     8     9 2   
@<TRIPOS>SUBSTRUCTURE
     1 0CT         1 TEMP              0 ****  ****    0 ROOT
