@<TRIPOS>MOLECULE
0CU
   14    15     1     0     0
SMALL
No Charge or Current Charge


@<TRIPOS>ATOM
      1 CAK          1.1460    -0.2490     0.0200 ca         1 0CU      -0.081200
      2 NAG          2.4600    -0.6210     0.0200 na         1 0CU      -0.053400
      3 NAE          2.5200    -2.0110     0.0160 nc         1 0CU      -0.148400
      4 NAF          1.2740    -2.4890     0.0140 nd         1 0CU      -0.215400
      5 CAJ          0.4220    -1.3960     0.0170 ca         1 0CU       0.025400
      6 CAD         -0.9800    -1.3690     0.0160 ca         1 0CU      -0.017000
      7 CAH         -1.6180    -0.1090     0.0200 ca         1 0CU       0.094000
      8 ClA         -3.3750    -0.0210     0.0190 cl         1 0CU      -0.183000
      9 CAC         -0.8560     1.0840     0.0230 ca         1 0CU      -0.062000
     10 CAI          0.5520     1.0210     0.0240 ca         1 0CU       0.116000
     11 ClB          1.5260     2.4870     0.0280 cl         1 0CU      -0.172000
     12 H1           3.2890    -0.0330     0.0220 hn         1 0CU       0.393000
     13 H2          -1.5570    -2.2890     0.0140 ha         1 0CU       0.155000
     14 H3          -1.3560     2.0490     0.0260 ha         1 0CU       0.148000
@<TRIPOS>BOND
     1     1     2 1   
     2     1     5 ar  
     3     1    10 ar  
     4     2     3 1   
     5     2    12 1   
     6     3     4 2   
     7     4     5 1   
     8     5     6 ar  
     9     6     7 ar  
    10     6    13 1   
    11     7     8 1   
    12     7     9 ar  
    13     9    10 ar  
    14     9    14 1   
    15    10    11 1   
@<TRIPOS>SUBSTRUCTURE
     1 0CU         1 TEMP              0 ****  ****    0 ROOT
