@<TRIPOS>MOLECULE
0CU
   14    15     1     0     0
SMALL
bcc


@<TRIPOS>ATOM
      1 CAK          1.1540    -0.2100     0.0200 ca         1 0CU      -0.081200
      2 NAG          2.4320    -0.6400     0.0200 na         1 0CU      -0.003100
      3 NAE          2.4760    -1.9630     0.0160 nc         1 0CU      -0.148400
      4 NAF          1.2900    -2.4350     0.0140 nd         1 0CU      -0.215400
      5 CAJ          0.4110    -1.3910     0.0170 ca         1 0CU       0.025400
      6 CAD         -0.9860    -1.3730     0.0160 ca         1 0CU      -0.035000
      7 CAH         -1.5750    -0.1330     0.0200 ca         1 0CU       0.002400
      8 CLA         -3.3010    -0.0110     0.0200 cl         1 0CU      -0.091400
      9 CAC         -0.8380     1.0700     0.0230 ca         1 0CU      -0.080000
     10 CAI          0.5350     1.0390     0.0240 ca         1 0CU       0.024400
     11 CLB          1.4800     2.4740     0.0280 cl         1 0CU      -0.080400
     12 H1           3.2900    -0.1080     0.0210 hn         1 0CU       0.342700
     13 H2          -1.5660    -2.2850     0.0130 ha         1 0CU       0.173000
     14 H3          -1.3570     2.0180     0.0250 ha         1 0CU       0.166000
@<TRIPOS>BOND
     1     1     2 1   
     2     1     5 ar  
     3     1    10 ar  
     4     2     3 1   
     5     2    12 1   
     6     3     4 2   
     7     4     5 1   
     8     5     6 ar  
     9     6     7 ar  
    10     6    13 1   
    11     7     8 1   
    12     7     9 ar  
    13     9    10 ar  
    14     9    14 1   
    15    10    11 1   
@<TRIPOS>SUBSTRUCTURE
     1 0CU         1 TEMP              0 ****  ****    0 ROOT
