@<TRIPOS>MOLECULE
0CV
   44    47     1     0     0
SMALL
No Charge or Current Charge


@<TRIPOS>ATOM
      1 C11         -1.7800     0.6200     0.0040 ca         1 0CV      -0.139000
      2 C20         -3.4670    -1.1220     0.0000 ca         1 0CV      -0.154000
      3 C8          -0.7500    -0.3500    -0.0020 ca         1 0CV      -0.105000
      4 C9           1.5500    -1.0210    -0.0100 ca         1 0CV      -0.237900
      5 C15         -2.4590    -2.1070    -0.0060 ca         1 0CV      -0.030300
      6 C10         -1.0880    -1.7360    -0.0070 ca         1 0CV       0.297000
      7 C7           0.6230     0.0190    -0.0040 ca         1 0CV       0.369000
      8 C16         -3.1280     0.2430     0.0050 ca         1 0CV       0.124100
      9 C13          2.9940    -1.0380    -0.0130 cc         1 0CV       0.385900
     10 C12          1.1520    -2.3180    -0.0140 ca         1 0CV       0.414500
     11 C2           1.0070     2.1750    -1.2540 c6         1 0CV       0.159800
     12 C6           1.0120     2.1610     1.2650 c6         1 0CV       0.159800
     13 C3           1.9540     3.4190    -1.2150 c6         1 0CV       0.145300
     14 C5           1.9590     3.4060     1.2360 c6         1 0CV       0.145300
     15 C23         -2.8720    -3.5790    -0.0110 c3         1 0CV      -0.040800
     16 C19          3.9160     0.1490    -0.0110 c3         1 0CV      -0.098400
     17 C22         -5.4890     0.9710     0.0130 c3         1 0CV       0.151900
     18 N18          3.4720    -2.2900    -0.0190 nd         1 0CV      -0.500100
     19 N17          2.3070    -3.0620    -0.0200 na         1 0CV      -0.213100
     20 N14         -0.1310    -2.7020    -0.0130 nb         1 0CV      -0.698000
     21 N1           1.0680     1.3610     0.0010 nh         1 0CV      -0.815400
     22 N4           1.7760     4.2440     0.0150 n7         1 0CV      -0.846400
     23 O21         -4.0760     1.2460     0.0110 os         1 0CV      -0.356100
     24 H11         -1.5490     1.6800     0.0080 ha         1 0CV       0.126000
     25 H20         -4.5070    -1.4350     0.0010 ha         1 0CV       0.119000
     26 H21         -0.0210     2.5240    -1.4260 h1         1 0CV       0.042700
     27 H22          1.2850     1.5530    -2.1180 h1         1 0CV       0.042700
     28 H62          1.2940     1.5300     2.1200 h1         1 0CV       0.042700
     29 H61         -0.0150     2.5080     1.4450 h1         1 0CV       0.042700
     30 H32          2.9970     3.0710    -1.2680 h1         1 0CV       0.060200
     31 H31          1.7750     4.0380    -2.1070 h1         1 0CV       0.060200
     32 H51          1.7840     4.0140     2.1350 h1         1 0CV       0.060200
     33 H52          3.0020     3.0570     1.2800 h1         1 0CV       0.060200
     34 H233        -2.4870    -4.0930    -0.9000 hc         1 0CV       0.049033
     35 H232        -2.4830    -4.1000     0.8730 hc         1 0CV       0.049033
     36 H231        -3.9610    -3.7020    -0.0090 hc         1 0CV       0.049033
     37 H193         3.7530     0.7620     0.8810 hc         1 0CV       0.053700
     38 H191         4.9670    -0.1630    -0.0150 hc         1 0CV       0.053700
     39 H192         3.7480     0.7700    -0.8960 hc         1 0CV       0.053700
     40 H221        -5.7770     0.4030    -0.8810 h1         1 0CV       0.041700
     41 H223        -5.7730     0.3960     0.9040 h1         1 0CV       0.041700
     42 H222        -6.0590     1.9080     0.0180 h1         1 0CV       0.041700
     43 H17          2.3340    -4.0770    -0.0240 hn         1 0CV       0.386000
     44 H1           0.8110     4.5960     0.0190 hn         1 0CV       0.402000
@<TRIPOS>BOND
     1     1     3 ar  
     2     1     8 ar  
     3     1    24 1   
     4     2     5 ar  
     5     2     8 ar  
     6     2    25 1   
     7     3     6 ar  
     8     3     7 ar  
     9     4     7 ar  
    10     4     9 1   
    11     4    10 ar  
    12     5     6 ar  
    13     5    15 1   
    14     6    20 ar  
    15     7    21 1   
    16     8    23 1   
    17     9    16 1   
    18     9    18 2   
    19    10    19 1   
    20    10    20 ar  
    21    11    13 1   
    22    11    21 1   
    23    11    26 1   
    24    11    27 1   
    25    12    14 1   
    26    12    21 1   
    27    12    28 1   
    28    12    29 1   
    29    13    22 1   
    30    13    30 1   
    31    13    31 1   
    32    14    22 1   
    33    14    32 1   
    34    14    33 1   
    35    15    34 1   
    36    15    35 1   
    37    15    36 1   
    38    16    37 1   
    39    16    38 1   
    40    16    39 1   
    41    17    23 1   
    42    17    40 1   
    43    17    41 1   
    44    17    42 1   
    45    18    19 1   
    46    19    43 1   
    47    22    44 1   
@<TRIPOS>SUBSTRUCTURE
     1 0CV         1 TEMP              0 ****  ****    0 ROOT
