@<TRIPOS>MOLECULE
0CV
   44    47     1     0     0
SMALL
abcg2


@<TRIPOS>ATOM
      1 C11         -1.7110     0.6780    -0.0300 ca         1 0CV      -0.139000
      2 C20         -3.3900    -1.0540     0.0790 ca         1 0CV      -0.154000
      3 C8          -0.6850    -0.2950    -0.0170 ca         1 0CV      -0.105000
      4 C9           1.6020    -0.9880    -0.0820 ca         1 0CV      -0.237900
      5 C15         -2.4370    -2.0400     0.1120 ca         1 0CV      -0.030300
      6 C10         -1.0540    -1.6910     0.0280 ca         1 0CV       0.297000
      7 C7           0.6980     0.0570    -0.0490 ca         1 0CV       0.369000
      8 C16         -3.0310     0.3130    -0.0060 ca         1 0CV       0.124100
      9 C13          3.0350    -1.1260    -0.1350 cc         1 0CV       0.385900
     10 C12          1.1080    -2.3270    -0.0580 ca         1 0CV       0.414500
     11 C2           0.9520     2.2170    -1.1980 c6         1 0CV       0.159800
     12 C6           0.9710     2.0720     1.2770 c6         1 0CV       0.159800
     13 C3           1.7170     3.5340    -1.0890 c6         1 0CV       0.145300
     14 C5           1.7540     3.3800     1.3170 c6         1 0CV       0.145300
     15 C23         -2.8290    -3.4830     0.2530 c3         1 0CV      -0.040800
     16 C19          4.0810    -0.0710    -0.1750 c3         1 0CV      -0.098400
     17 C22         -5.3240     0.9890    -0.2530 c3         1 0CV       0.151900
     18 N18          3.3610    -2.4010    -0.1470 nd         1 0CV      -0.500100
     19 N17          2.2060    -3.1290    -0.0960 na         1 0CV      -0.213100
     20 N14         -0.1490    -2.7010     0.0080 nb         1 0CV      -0.698000
     21 N1           1.1820     1.3940    -0.0070 nh         1 0CV      -0.815400
     22 N4           1.4840     4.2490     0.1700 n7         1 0CV      -0.846400
     23 O21         -3.9500     1.3210    -0.0430 os         1 0CV      -0.356100
     24 H11         -1.4700     1.7260    -0.0680 ha         1 0CV       0.126000
     25 H20         -4.4310    -1.3360     0.1380 ha         1 0CV       0.119000
     26 H21         -0.1080     2.4480    -1.3640 h1         1 0CV       0.042700
     27 H22          1.3030     1.6610    -2.0670 h1         1 0CV       0.042700
     28 H62          1.3200     1.4080     2.0680 h1         1 0CV       0.042700
     29 H61         -0.0870     2.2910     1.4720 h1         1 0CV       0.042700
     30 H32          2.7890     3.3400    -1.1720 h1         1 0CV       0.060200
     31 H31          1.4280     4.1810    -1.9170 h1         1 0CV       0.060200
     32 H51          1.5060     3.9160     2.2330 h1         1 0CV       0.060200
     33 H52          2.8240     3.1610     1.3320 h1         1 0CV       0.060200
     34 H233        -2.5940    -4.0470    -0.6510 hc         1 0CV       0.049033
     35 H232        -2.2790    -3.9560     1.0650 hc         1 0CV       0.049033
     36 H231        -3.8950    -3.5760     0.4520 hc         1 0CV       0.049033
     37 H193         4.0500     0.5460     0.7230 hc         1 0CV       0.053700
     38 H191         5.0630    -0.5320    -0.2600 hc         1 0CV       0.053700
     39 H192         3.9290     0.6000    -1.0200 hc         1 0CV       0.053700
     40 H221        -5.4490     0.3930    -1.1570 h1         1 0CV       0.041700
     41 H223        -5.7370     0.4490     0.6000 h1         1 0CV       0.041700
     42 H222        -5.8430     1.9360    -0.3670 h1         1 0CV       0.041700
     43 H17          2.2400    -4.1330    -0.1100 hn         1 0CV       0.386000
     44 H1           0.5170     4.5530     0.2040 hn         1 0CV       0.402000
@<TRIPOS>BOND
     1     1     3 ar  
     2     1     8 ar  
     3     1    24 1   
     4     2     5 ar  
     5     2     8 ar  
     6     2    25 1   
     7     3     6 ar  
     8     3     7 ar  
     9     4     7 ar  
    10     4     9 1   
    11     4    10 ar  
    12     5     6 ar  
    13     5    15 1   
    14     6    20 ar  
    15     7    21 1   
    16     8    23 1   
    17     9    16 1   
    18     9    18 2   
    19    10    19 1   
    20    10    20 ar  
    21    11    13 1   
    22    11    21 1   
    23    11    26 1   
    24    11    27 1   
    25    12    14 1   
    26    12    21 1   
    27    12    28 1   
    28    12    29 1   
    29    13    22 1   
    30    13    30 1   
    31    13    31 1   
    32    14    22 1   
    33    14    32 1   
    34    14    33 1   
    35    15    34 1   
    36    15    35 1   
    37    15    36 1   
    38    16    37 1   
    39    16    38 1   
    40    16    39 1   
    41    17    23 1   
    42    17    40 1   
    43    17    41 1   
    44    17    42 1   
    45    18    19 1   
    46    19    43 1   
    47    22    44 1   
@<TRIPOS>SUBSTRUCTURE
     1 0CV         1 TEMP              0 ****  ****    0 ROOT
