@<TRIPOS>MOLECULE
0CX
   63    66     1     0     0
SMALL
No Charge or Current Charge


@<TRIPOS>ATOM
      1 O4          -2.2260    61.3440   -20.5370 o          1 0CX      -0.534100
      2 C15         -1.8180    60.2720   -20.1070 c          1 0CX       0.588300
      3 C16         -2.6250    58.9680   -20.3200 c3         1 0CX      -0.150700
      4 C24         -2.2560    58.3930   -21.7190 c3         1 0CX      -0.080100
      5 C17         -4.1650    59.1630   -20.1850 c3         1 0CX       0.182300
      6 O5          -4.8340    57.9250   -20.4520 oh         1 0CX      -0.672000
      7 C18         -4.6510    59.7020   -18.8200 c3         1 0CX      -0.113400
      8 C19         -4.4520    58.7510   -17.6040 c3         1 0CX      -0.062400
      9 C20         -4.8980    59.3740   -16.2550 c3         1 0CX      -0.080400
     10 C21         -3.7970    60.1580   -15.4940 c3         1 0CX       0.169300
     11 C22         -4.3910    61.0400   -14.3620 c3         1 0CX      -0.089400
     12 C23         -3.3630    61.7710   -13.4740 c3         1 0CX      -0.087100
     13 O1          -3.1220    60.9940   -16.4540 os         1 0CX      -0.455100
     14 C14         -0.5390    60.1800   -19.3080 ce         1 0CX      -0.221400
     15 C13          0.4070    59.2460   -19.5020 c2         1 0CX      -0.134200
     16 C12          1.6390    59.6940   -18.7490 c5         1 0CX      -0.027500
     17 C11          2.5880    60.4410   -19.7400 c5         1 0CX      -0.065700
     18 C10          3.3080    59.4570   -20.6920 c5         1 0CX      -0.072400
     19 C9           4.5280    60.3280   -21.1560 c5         1 0CX       0.162300
     20 C8           4.7160    61.4000   -20.0170 c5         1 0CX      -0.101400
     21 O2           5.6970    59.5310   -21.3370 oh         1 0CX      -0.666000
     22 C7           3.7890    60.8820   -18.8880 c5         1 0CX      -0.035500
     23 C6           3.3290    61.9770   -17.9420 c2         1 0CX      -0.205200
     24 C5           2.0920    61.9190   -17.4050 c2         1 0CX      -0.211200
     25 C4           1.0970    60.7820   -17.7330 c5         1 0CX      -0.039500
     26 C3          -0.1780    61.3920   -18.4450 c5         1 0CX       0.001500
     27 C2          -1.2410    62.0520   -17.5050 c3         1 0CX      -0.128400
     28 C1          -1.7710    61.1910   -16.3500 c          1 0CX       0.594100
     29 O3          -1.0860    60.7830   -15.4230 o          1 0CX      -0.501000
     30 H1          -2.2670    58.2310   -19.5930 hc         1 0CX       0.072700
     31 H2          -1.1710    58.3270   -21.8540 hc         1 0CX       0.045033
     32 H3          -2.6660    57.3850   -21.8570 hc         1 0CX       0.045033
     33 H4          -2.6500    59.0340   -22.5180 hc         1 0CX       0.045033
     34 H5          -4.4650    59.9000   -20.9440 h1         1 0CX       0.047700
     35 H6          -5.7980    58.1050   -20.4080 ho         1 0CX       0.442000
     36 H7          -4.1660    60.6660   -18.6390 hc         1 0CX       0.053700
     37 H8          -5.7210    59.9310   -18.9040 hc         1 0CX       0.053700
     38 H9          -5.0410    57.8400   -17.7700 hc         1 0CX       0.046200
     39 H10         -3.4050    58.4330   -17.5300 hc         1 0CX       0.046200
     40 H11         -5.7680    60.0210   -16.4240 hc         1 0CX       0.048700
     41 H12         -5.2460    58.5680   -15.5980 hc         1 0CX       0.048700
     42 H13         -3.1110    59.4160   -15.0620 h1         1 0CX       0.071700
     43 H14         -5.0700    61.7810   -14.8010 hc         1 0CX       0.048200
     44 H15         -5.0070    60.4020   -13.7150 hc         1 0CX       0.048200
     45 H16         -3.8730    62.2900   -12.6530 hc         1 0CX       0.038033
     46 H17         -2.6510    61.0610   -13.0370 hc         1 0CX       0.038033
     47 H18         -2.8070    62.5200   -14.0490 hc         1 0CX       0.038033
     48 H20          0.3430    58.3810   -20.1640 ha         1 0CX       0.192000
     49 H22          2.1300    58.8590   -18.2340 hc         1 0CX       0.075700
     50 H23          2.1030    61.2690   -20.2750 hc         1 0CX       0.054700
     51 H24          2.6780    59.1460   -21.5330 hc         1 0CX       0.059200
     52 H25          3.6340    58.5460   -20.1740 hc         1 0CX       0.059200
     53 H26          4.2830    60.8410   -22.0970 h1         1 0CX       0.037700
     54 H27          5.7560    61.4980   -19.6830 hc         1 0CX       0.050200
     55 H28          4.4010    62.3900   -20.3690 hc         1 0CX       0.050200
     56 H29          6.4130    60.1410   -21.6220 ho         1 0CX       0.439000
     57 H30          4.2590    60.0560   -18.3360 hc         1 0CX       0.070700
     58 H31          3.9980    62.8000   -17.6800 ha         1 0CX       0.178000
     59 H32          1.7850    62.7070   -16.7150 ha         1 0CX       0.173000
     60 H33          0.8320    60.2550   -16.8130 hc         1 0CX       0.088700
     61 H34          0.1330    62.1970   -19.1220 hc         1 0CX       0.076700
     62 H35         -0.7830    62.9350   -17.0460 hc         1 0CX       0.079200
     63 H36         -2.0900    62.4010   -18.1020 hc         1 0CX       0.079200
@<TRIPOS>BOND
     1     1     2 2   
     2     2     3 1   
     3     2    14 1   
     4     3     4 1   
     5     3     5 1   
     6     3    30 1   
     7     4    31 1   
     8     4    32 1   
     9     4    33 1   
    10     5     6 1   
    11     5     7 1   
    12     5    34 1   
    13     6    35 1   
    14     7     8 1   
    15     7    36 1   
    16     7    37 1   
    17     8     9 1   
    18     8    38 1   
    19     8    39 1   
    20     9    10 1   
    21     9    40 1   
    22     9    41 1   
    23    10    11 1   
    24    10    13 1   
    25    10    42 1   
    26    11    12 1   
    27    11    43 1   
    28    11    44 1   
    29    12    45 1   
    30    12    46 1   
    31    12    47 1   
    32    13    28 1   
    33    14    15 2   
    34    14    26 1   
    35    15    16 1   
    36    15    48 1   
    37    16    17 1   
    38    16    25 1   
    39    16    49 1   
    40    17    18 1   
    41    17    22 1   
    42    17    50 1   
    43    18    19 1   
    44    18    51 1   
    45    18    52 1   
    46    19    20 1   
    47    19    21 1   
    48    19    53 1   
    49    20    22 1   
    50    20    54 1   
    51    20    55 1   
    52    21    56 1   
    53    22    23 1   
    54    22    57 1   
    55    23    24 2   
    56    23    58 1   
    57    24    25 1   
    58    24    59 1   
    59    25    26 1   
    60    25    60 1   
    61    26    27 1   
    62    26    61 1   
    63    27    28 1   
    64    27    62 1   
    65    27    63 1   
    66    28    29 2   
@<TRIPOS>SUBSTRUCTURE
     1 0CX         1 TEMP              0 ****  ****    0 ROOT
