@<TRIPOS>MOLECULE
0CX
   63    66     1     0     0
SMALL
abcg2


@<TRIPOS>ATOM
      1 O4          -2.6790    61.6670   -20.1690 o          1 0CX      -0.534100
      2 C15         -2.0920    60.6200   -19.9220 c          1 0CX       0.588300
      3 C16         -2.6260    59.2920   -20.4350 c3         1 0CX      -0.150700
      4 C24         -2.2220    59.1360   -21.9100 c3         1 0CX      -0.080100
      5 C17         -4.1490    59.2090   -20.2580 c3         1 0CX       0.182300
      6 O5          -4.5200    57.8780   -20.6510 oh         1 0CX      -0.672000
      7 C18         -4.6480    59.5330   -18.8500 c3         1 0CX      -0.113400
      8 C19         -4.1020    58.6640   -17.7160 c3         1 0CX      -0.062400
      9 C20         -4.6170    59.1350   -16.3440 c3         1 0CX      -0.080400
     10 C21         -3.6130    59.9380   -15.5270 c3         1 0CX       0.169300
     11 C22         -4.2400    60.5820   -14.2990 c3         1 0CX      -0.089400
     12 C23         -3.2570    61.3200   -13.3940 c3         1 0CX      -0.087100
     13 O1          -3.0650    60.9940   -16.3820 os         1 0CX      -0.455100
     14 C14         -0.8250    60.6480   -19.1780 ce         1 0CX      -0.221400
     15 C13          0.1120    59.6910   -19.2060 c2         1 0CX      -0.134200
     16 C12          1.4080    60.1270   -18.6030 c5         1 0CX      -0.027500
     17 C11          2.4890    60.3180   -19.6670 c5         1 0CX      -0.065700
     18 C10          3.1050    59.0820   -20.3240 c5         1 0CX      -0.072400
     19 C9           4.5110    59.5340   -20.7890 c5         1 0CX       0.162300
     20 C8           4.6940    60.9700   -20.2450 c5         1 0CX      -0.101400
     21 O2           5.4700    58.6150   -20.2380 oh         1 0CX      -0.666000
     22 C7           3.7010    61.0520   -19.0870 c5         1 0CX      -0.035500
     23 C6           3.2920    62.3910   -18.5590 c2         1 0CX      -0.205200
     24 C5           2.0730    62.5690   -18.0500 c2         1 0CX      -0.211200
     25 C4           1.0510    61.4770   -17.9020 c5         1 0CX      -0.039500
     26 C3          -0.3630    61.8770   -18.4260 c5         1 0CX       0.001500
     27 C2          -1.3430    62.3200   -17.3170 c3         1 0CX      -0.128400
     28 C1          -1.7410    61.1960   -16.3870 c          1 0CX       0.594100
     29 O3          -0.9590    60.5480   -15.7230 o          1 0CX      -0.501000
     30 H1          -2.1780    58.4810   -19.8610 hc         1 0CX       0.072700
     31 H2          -1.1380    59.1750   -22.0230 hc         1 0CX       0.045033
     32 H3          -2.5740    58.1790   -22.2940 hc         1 0CX       0.045033
     33 H4          -2.6600    59.9350   -22.5110 hc         1 0CX       0.045033
     34 H5          -4.6080    59.9250   -20.9480 h1         1 0CX       0.047700
     35 H6          -5.4800    57.8060   -20.5830 ho         1 0CX       0.442000
     36 H7          -4.4360    60.5820   -18.6410 hc         1 0CX       0.053700
     37 H8          -5.7400    59.4440   -18.8620 hc         1 0CX       0.053700
     38 H9          -4.3970    57.6280   -17.8870 hc         1 0CX       0.046200
     39 H10         -3.0100    58.6760   -17.7180 hc         1 0CX       0.046200
     40 H11         -5.5280    59.7260   -16.4750 hc         1 0CX       0.048700
     41 H12         -4.8930    58.2780   -15.7260 hc         1 0CX       0.048700
     42 H13         -2.7800    59.3000   -15.2380 h1         1 0CX       0.071700
     43 H14         -5.0280    61.2630   -14.6340 hc         1 0CX       0.048200
     44 H15         -4.7320    59.7850   -13.7350 hc         1 0CX       0.048200
     45 H16         -3.7770    61.7390   -12.5310 hc         1 0CX       0.038033
     46 H17         -2.4770    60.6500   -13.0280 hc         1 0CX       0.038033
     47 H18         -2.7720    62.1450   -13.9200 hc         1 0CX       0.038033
     48 H20          0.0060    58.7340   -19.7000 ha         1 0CX       0.192000
     49 H22          1.7760    59.3940   -17.8770 hc         1 0CX       0.075700
     50 H23          2.0750    60.9650   -20.4500 hc         1 0CX       0.054700
     51 H24          2.5040    58.6870   -21.1420 hc         1 0CX       0.059200
     52 H25          3.2310    58.2850   -19.5870 hc         1 0CX       0.059200
     53 H26          4.5970    59.5190   -21.8790 h1         1 0CX       0.037700
     54 H27          5.7300    61.1600   -19.9590 hc         1 0CX       0.050200
     55 H28          4.4200    61.6940   -21.0170 hc         1 0CX       0.050200
     56 H29          6.3450    58.8730   -20.5550 ho         1 0CX       0.439000
     57 H30          4.0960    60.4420   -18.2620 hc         1 0CX       0.070700
     58 H31          3.9980    63.2150   -18.5980 ha         1 0CX       0.178000
     59 H32          1.7810    63.5460   -17.6750 ha         1 0CX       0.173000
     60 H33          0.9480    61.2670   -16.8380 hc         1 0CX       0.088700
     61 H34         -0.2850    62.7210   -19.1170 hc         1 0CX       0.076700
     62 H35         -0.8580    63.0890   -16.7100 hc         1 0CX       0.079200
     63 H36         -2.2360    62.7520   -17.7600 hc         1 0CX       0.079200
@<TRIPOS>BOND
     1     1     2 2   
     2     2     3 1   
     3     2    14 1   
     4     3     4 1   
     5     3     5 1   
     6     3    30 1   
     7     4    31 1   
     8     4    32 1   
     9     4    33 1   
    10     5     6 1   
    11     5     7 1   
    12     5    34 1   
    13     6    35 1   
    14     7     8 1   
    15     7    36 1   
    16     7    37 1   
    17     8     9 1   
    18     8    38 1   
    19     8    39 1   
    20     9    10 1   
    21     9    40 1   
    22     9    41 1   
    23    10    11 1   
    24    10    13 1   
    25    10    42 1   
    26    11    12 1   
    27    11    43 1   
    28    11    44 1   
    29    12    45 1   
    30    12    46 1   
    31    12    47 1   
    32    13    28 1   
    33    14    15 2   
    34    14    26 1   
    35    15    16 1   
    36    15    48 1   
    37    16    17 1   
    38    16    25 1   
    39    16    49 1   
    40    17    18 1   
    41    17    22 1   
    42    17    50 1   
    43    18    19 1   
    44    18    51 1   
    45    18    52 1   
    46    19    20 1   
    47    19    21 1   
    48    19    53 1   
    49    20    22 1   
    50    20    54 1   
    51    20    55 1   
    52    21    56 1   
    53    22    23 1   
    54    22    57 1   
    55    23    24 2   
    56    23    58 1   
    57    24    25 1   
    58    24    59 1   
    59    25    26 1   
    60    25    60 1   
    61    26    27 1   
    62    26    61 1   
    63    27    28 1   
    64    27    62 1   
    65    27    63 1   
    66    28    29 2   
@<TRIPOS>SUBSTRUCTURE
     1 0CX         1 TEMP              0 ****  ****    0 ROOT
