@<TRIPOS>MOLECULE
0CZ
   33    34     1     0     0
SMALL
bcc


@<TRIPOS>ATOM
      1 CAM          2.4190    -0.1690     0.7740 ca         1 0CZ      -0.055250
      2 CAI          3.5690     0.6010     0.7200 ca         1 0CZ      -0.199250
      3 CAQ          3.6160     1.7410    -0.0750 ca         1 0CZ       0.161100
      4 OAA          4.7560     2.4520    -0.0960 oh         1 0CZ      -0.487600
      5 CAJ          2.4890     2.0960    -0.8100 ca         1 0CZ      -0.199250
      6 CAN          1.3440     1.3230    -0.7400 ca         1 0CZ      -0.055250
      7 CAS          1.2750     0.1820     0.0590 ca         1 0CZ      -0.150300
      8 CAW         -0.0080    -0.6580     0.0270 c3         1 0CZ      -0.055400
      9 CAU          0.1150    -1.5530    -1.2310 c3         1 0CZ       0.674900
     10 FAD         -0.7980    -2.5310    -1.2890 f          1 0CZ      -0.224300
     11 FAE         -0.0130    -0.8270    -2.3420 f          1 0CZ      -0.224300
     12 FAC          1.3060    -2.1500    -1.2920 f          1 0CZ      -0.224300
     13 CAV         -0.1710    -1.5570     1.2770 c3         1 0CZ       0.674900
     14 FAG          0.6960    -2.5760     1.3260 f          1 0CZ      -0.224300
     15 FAH         -0.0090    -0.8470     2.3930 f          1 0CZ      -0.224300
     16 FAF         -1.3890    -2.0980     1.3340 f          1 0CZ      -0.224300
     17 CAT         -1.2520     0.2400     0.0030 ca         1 0CZ      -0.150300
     18 CAO         -2.4050    -0.0460    -0.7230 ca         1 0CZ      -0.055250
     19 CAK         -3.5190     0.7780    -0.6610 ca         1 0CZ      -0.199250
     20 CAR         -3.5160     1.9070     0.1500 ca         1 0CZ       0.161100
     21 OAB         -4.5650     2.7410     0.2490 oh         1 0CZ      -0.487600
     22 CAL         -2.3770     2.1960     0.8980 ca         1 0CZ      -0.199250
     23 CAP         -1.2710     1.3710     0.8200 ca         1 0CZ      -0.055250
     24 H1           2.4600    -1.0510     1.3940 ha         1 0CZ       0.145750
     25 H2           4.4380     0.3080     1.2960 ha         1 0CZ       0.145250
     26 H3           4.6720     3.2100    -0.6870 ho         1 0CZ       0.430000
     27 H4           2.5000     2.9770    -1.4410 ha         1 0CZ       0.145250
     28 H5           0.4860     1.6430    -1.3160 ha         1 0CZ       0.145750
     29 H6          -2.4860    -0.9150    -1.3570 ha         1 0CZ       0.145750
     30 H7          -4.3930     0.5280    -1.2510 ha         1 0CZ       0.145250
     31 H8          -5.2920     2.4390    -0.3080 ho         1 0CZ       0.430000
     32 H9          -2.3580     3.0680     1.5400 ha         1 0CZ       0.145250
     33 H10         -0.4010     1.6390     1.4050 ha         1 0CZ       0.145750
@<TRIPOS>BOND
     1     1     2 ar  
     2     1     7 ar  
     3     1    24 1   
     4     2     3 ar  
     5     2    25 1   
     6     3     4 1   
     7     3     5 ar  
     8     4    26 1   
     9     5     6 ar  
    10     5    27 1   
    11     6     7 ar  
    12     6    28 1   
    13     7     8 1   
    14     8     9 1   
    15     8    13 1   
    16     8    17 1   
    17     9    10 1   
    18     9    11 1   
    19     9    12 1   
    20    13    14 1   
    21    13    15 1   
    22    13    16 1   
    23    17    18 ar  
    24    17    23 ar  
    25    18    19 ar  
    26    18    29 1   
    27    19    20 ar  
    28    19    30 1   
    29    20    21 1   
    30    20    22 ar  
    31    21    31 1   
    32    22    23 ar  
    33    22    32 1   
    34    23    33 1   
@<TRIPOS>SUBSTRUCTURE
     1 0CZ         1 TEMP              0 ****  ****    0 ROOT
