@<TRIPOS>MOLECULE
0CZ
   33    34     1     0     0
SMALL
No Charge or Current Charge


@<TRIPOS>ATOM
      1 CAM          2.4100    -0.1180     0.8420 ca         1 0CZ      -0.037250
      2 CAI          3.5430     0.7120     0.7900 ca         1 0CZ      -0.181250
      3 CAQ          3.5770     1.8130    -0.0710 ca         1 0CZ       0.161100
      4 OAA          4.6830     2.6080    -0.1110 oh         1 0CZ      -0.526600
      5 CAJ          2.4760     2.0870    -0.8910 ca         1 0CZ      -0.181250
      6 CAN          1.3400     1.2610    -0.8440 ca         1 0CZ      -0.037250
      7 CAS          1.2770     0.1470     0.0300 ca         1 0CZ      -0.150300
      8 CAW         -0.0080    -0.7480     0.0290 c3         1 0CZ      -0.055400
      9 CAU          0.0850    -1.6530    -1.2680 c3         1 0CZ       0.311000
     10 FAD         -0.8550    -2.6280    -1.2980 f          1 0CZ      -0.103000
     11 FAE         -0.0550    -0.9240    -2.4010 f          1 0CZ      -0.103000
     12 FAC          1.2890    -2.2690    -1.3520 f          1 0CZ      -0.103000
     13 CAV         -0.1470    -1.6710     1.3100 c3         1 0CZ       0.311000
     14 FAG          0.7430    -2.6910     1.3220 f          1 0CZ      -0.103000
     15 FAH          0.0280    -0.9690     2.4550 f          1 0CZ      -0.103000
     16 FAF         -1.3810    -2.2270     1.3830 f          1 0CZ      -0.103000
     17 CAT         -1.2470     0.2100     0.0440 ca         1 0CZ      -0.150300
     18 CAO         -2.3920     0.0170    -0.7710 ca         1 0CZ      -0.037250
     19 CAK         -3.4840     0.9010    -0.7050 ca         1 0CZ      -0.181250
     20 CAR         -3.4610     1.9880     0.1780 ca         1 0CZ       0.161100
     21 OAB         -4.5160     2.8460     0.2450 oh         1 0CZ      -0.526600
     22 CAL         -2.3480     2.1900     1.0000 ca         1 0CZ      -0.181250
     23 CAP         -1.2550     1.3100     0.9380 ca         1 0CZ      -0.037250
     24 H1           2.4410    -0.9650     1.5200 ha         1 0CZ       0.127750
     25 H2           4.4010     0.4950     1.4220 ha         1 0CZ       0.127250
     26 H3           4.5280     3.3210    -0.7660 ho         1 0CZ       0.469000
     27 H4           2.4900     2.9370    -1.5700 ha         1 0CZ       0.127250
     28 H5           0.5000     1.4960    -1.4940 ha         1 0CZ       0.127750
     29 H6          -2.4650    -0.8160    -1.4630 ha         1 0CZ       0.127750
     30 H7          -4.3470     0.7290    -1.3440 ha         1 0CZ       0.127250
     31 H8          -5.1980     2.5500    -0.3950 ho         1 0CZ       0.469000
     32 H9          -2.3290     3.0300     1.6890 ha         1 0CZ       0.127250
     33 H10         -0.4050     1.4920     1.5930 ha         1 0CZ       0.127750
@<TRIPOS>BOND
     1     1     2 ar  
     2     1     7 ar  
     3     1    24 1   
     4     2     3 ar  
     5     2    25 1   
     6     3     4 1   
     7     3     5 ar  
     8     4    26 1   
     9     5     6 ar  
    10     5    27 1   
    11     6     7 ar  
    12     6    28 1   
    13     7     8 1   
    14     8     9 1   
    15     8    13 1   
    16     8    17 1   
    17     9    10 1   
    18     9    11 1   
    19     9    12 1   
    20    13    14 1   
    21    13    15 1   
    22    13    16 1   
    23    17    18 ar  
    24    17    23 ar  
    25    18    19 ar  
    26    18    29 1   
    27    19    20 ar  
    28    19    30 1   
    29    20    21 1   
    30    20    22 ar  
    31    21    31 1   
    32    22    23 ar  
    33    22    32 1   
    34    23    33 1   
@<TRIPOS>SUBSTRUCTURE
     1 0CZ         1 TEMP              0 ****  ****    0 ROOT
