@<TRIPOS>MOLECULE
0D1
   28    29     1     0     0
SMALL
bcc


@<TRIPOS>ATOM
      1 CAI         -1.3980    -1.1130     1.0170 ca         1 0D1      -0.063250
      2 CAE         -2.5370    -1.8940     1.0540 ca         1 0D1      -0.199000
      3 CAO         -3.5320    -1.7200     0.0920 ca         1 0D1       0.150600
      4 OAA         -4.6200    -2.5070     0.1680 oh         1 0D1      -0.492100
      5 CAF         -3.3620    -0.7590    -0.9010 ca         1 0D1      -0.199000
      6 CAJ         -2.2210     0.0270    -0.9180 ca         1 0D1      -0.063250
      7 CAQ         -1.2260    -0.1280     0.0430 ca         1 0D1      -0.103800
      8 CAN          0.0170     0.6750     0.0280 ce         1 0D1       0.033600
      9 CAM         -0.0050     2.0110     0.0170 c2         1 0D1       0.084800
     10 CLD         -1.4450     2.9460     0.1580 cl         1 0D1      -0.078900
     11 CLC          1.4060     2.9880    -0.1390 cl         1 0D1      -0.078900
     12 CAR          1.2850    -0.0870     0.0320 ca         1 0D1      -0.103800
     13 CAK          1.4970    -1.0790    -0.9230 ca         1 0D1      -0.063250
     14 CAG          2.6630    -1.8260    -0.9350 ca         1 0D1      -0.199000
     15 CAP          3.6390    -1.6070     0.0350 ca         1 0D1       0.150600
     16 OAB          4.7870    -2.3080     0.0810 oh         1 0D1      -0.492100
     17 CAH          3.4300    -0.6340     1.0100 ca         1 0D1      -0.199000
     18 CAL          2.2670     0.1160     1.0010 ca         1 0D1      -0.063250
     19 H1          -0.6310    -1.2670     1.7660 ha         1 0D1       0.139250
     20 H2          -2.6600    -2.6440     1.8250 ha         1 0D1       0.141500
     21 H3          -5.2460    -2.2910    -0.5320 ho         1 0D1       0.427500
     22 H4          -4.1170    -0.6230    -1.6680 ha         1 0D1       0.141500
     23 H5          -2.1040     0.7610    -1.7040 ha         1 0D1       0.139250
     24 H6           0.7430    -1.2700    -1.6760 ha         1 0D1       0.139250
     25 H7           2.8080    -2.5830    -1.6960 ha         1 0D1       0.141500
     26 H8           4.8220    -2.9450    -0.6410 ho         1 0D1       0.427500
     27 H9           4.1780    -0.4700     1.7760 ha         1 0D1       0.141500
     28 H10          2.1180     0.8590     1.7730 ha         1 0D1       0.139250
@<TRIPOS>BOND
     1     1     2 ar  
     2     1     7 ar  
     3     1    19 1   
     4     2     3 ar  
     5     2    20 1   
     6     3     4 1   
     7     3     5 ar  
     8     4    21 1   
     9     5     6 ar  
    10     5    22 1   
    11     6     7 ar  
    12     6    23 1   
    13     7     8 1   
    14     8     9 2   
    15     8    12 1   
    16     9    10 1   
    17     9    11 1   
    18    12    13 ar  
    19    12    18 ar  
    20    13    14 ar  
    21    13    24 1   
    22    14    15 ar  
    23    14    25 1   
    24    15    16 1   
    25    15    17 ar  
    26    16    26 1   
    27    17    18 ar  
    28    17    27 1   
    29    18    28 1   
@<TRIPOS>SUBSTRUCTURE
     1 0D1         1 TEMP              0 ****  ****    0 ROOT
