@<TRIPOS>MOLECULE
0D1
   28    29     1     0     0
SMALL
No Charge or Current Charge


@<TRIPOS>ATOM
      1 CAI         -1.3950    -1.1150     1.0620 ca         1 0D1      -0.045250
      2 CAE         -2.5520    -1.9130     1.0840 ca         1 0D1      -0.181000
      3 CAO         -3.5420    -1.7450     0.1070 ca         1 0D1       0.150600
      4 OAA         -4.6590    -2.5240     0.1370 oh         1 0D1      -0.531100
      5 CAF         -3.3780    -0.7800    -0.9000 ca         1 0D1      -0.181000
      6 CAJ         -2.2210     0.0200    -0.9250 ca         1 0D1      -0.045250
      7 CAQ         -1.2270    -0.1350     0.0630 ca         1 0D1      -0.103800
      8 CAN          0.0160     0.6930     0.0380 ce         1 0D1       0.033600
      9 CAM         -0.0090     2.0530     0.0190 c2         1 0D1       0.236000
     10 ClD         -1.4730     3.0080     0.0770 cl         1 0D1      -0.154500
     11 ClC          1.4180     3.0590    -0.0670 cl         1 0D1      -0.154500
     12 CAR          1.2890    -0.0890     0.0370 ca         1 0D1      -0.103800
     13 CAK          1.4930    -1.0900    -0.9340 ca         1 0D1      -0.045250
     14 CAG          2.6790    -1.8470    -0.9350 ca         1 0D1      -0.181000
     15 CAP          3.6620    -1.6120     0.0380 ca         1 0D1       0.150600
     16 OAB          4.8130    -2.3410     0.0440 oh         1 0D1      -0.531100
     17 CAH          3.4600    -0.6270     1.0150 ca         1 0D1      -0.181000
     18 CAL          2.2760     0.1310     1.0190 ca         1 0D1      -0.045250
     19 H1          -0.6300    -1.2540     1.8230 ha         1 0D1       0.121250
     20 H2          -2.6770    -2.6640     1.8600 ha         1 0D1       0.123500
     21 H3          -5.2350    -2.2690    -0.6150 ho         1 0D1       0.466500
     22 H4          -4.1370    -0.6470    -1.6670 ha         1 0D1       0.123500
     23 H5          -2.0960     0.7550    -1.7170 ha         1 0D1       0.121250
     24 H6           0.7340    -1.2790    -1.6900 ha         1 0D1       0.121250
     25 H7           2.8240    -2.6120    -1.6940 ha         1 0D1       0.123500
     26 H8           4.7810    -2.9770    -0.7020 ho         1 0D1       0.466500
     27 H9           4.2190    -0.4510     1.7730 ha         1 0D1       0.123500
     28 H10          2.1240     0.8830     1.7910 ha         1 0D1       0.121250
@<TRIPOS>BOND
     1     1     2 ar  
     2     1     7 ar  
     3     1    19 1   
     4     2     3 ar  
     5     2    20 1   
     6     3     4 1   
     7     3     5 ar  
     8     4    21 1   
     9     5     6 ar  
    10     5    22 1   
    11     6     7 ar  
    12     6    23 1   
    13     7     8 1   
    14     8     9 2   
    15     8    12 1   
    16     9    10 1   
    17     9    11 1   
    18    12    13 ar  
    19    12    18 ar  
    20    13    14 ar  
    21    13    24 1   
    22    14    15 ar  
    23    14    25 1   
    24    15    16 1   
    25    15    17 ar  
    26    16    26 1   
    27    17    18 ar  
    28    17    27 1   
    29    18    28 1   
@<TRIPOS>SUBSTRUCTURE
     1 0D1         1 TEMP              0 ****  ****    0 ROOT
