@<TRIPOS>MOLECULE
0D2
   40    43     1     0     0
SMALL
No Charge or Current Charge


@<TRIPOS>ATOM
      1 O20         -0.1240     0.7350    -2.7110 o          1 0D2      -0.517500
      2 C19         -0.2510     1.1840    -1.5800 c          1 0D2       0.580000
      3 N16         -0.9670     2.2820    -1.2600 ns         1 0D2      -0.472000
      4 C18          0.3090     0.7060    -0.1870 c5         1 0D2       0.090700
      5 N17         -0.3020     1.7220     0.7140 ns         1 0D2      -0.514900
      6 C15         -1.0460     2.6290     0.0270 c          1 0D2       0.625000
      7 O14         -1.6590     3.5690     0.4930 o          1 0D2      -0.531000
      8 C21          1.8560     0.6440    -0.1040 ca         1 0D2      -0.113300
      9 C26          2.6430     0.2020    -1.1950 ca         1 0D2      -0.085750
     10 C25          4.0440     0.1460    -1.1020 ca         1 0D2      -0.110000
     11 C24          4.6900     0.5310     0.0820 ca         1 0D2      -0.092000
     12 C23          3.9290     0.9730     1.1730 ca         1 0D2      -0.110000
     13 C22          2.5280     1.0300     1.0820 ca         1 0D2      -0.085750
     14 C5          -0.3220    -0.7070     0.2200 c5         1 0D2       0.090700
     15 N4           0.2890    -1.7240    -0.6810 ns         1 0D2      -0.514900
     16 C3           1.0330    -2.6300     0.0060 c          1 0D2       0.625000
     17 O13          1.6460    -3.5700    -0.4590 o          1 0D2      -0.531000
     18 C1           0.2380    -1.1850     1.6140 c          1 0D2       0.580000
     19 O12          0.1110    -0.7360     2.7440 o          1 0D2      -0.517500
     20 N2           0.9530    -2.2830     1.2930 ns         1 0D2      -0.472000
     21 C6          -1.8700    -0.6450     0.1370 ca         1 0D2      -0.113300
     22 C7          -2.5410    -1.0300    -1.0490 ca         1 0D2      -0.085750
     23 C8          -3.9420    -0.9740    -1.1400 ca         1 0D2      -0.110000
     24 C9          -4.7030    -0.5320    -0.0490 ca         1 0D2      -0.092000
     25 C10         -4.0580    -0.1470     1.1350 ca         1 0D2      -0.110000
     26 C11         -2.6570    -0.2040     1.2280 ca         1 0D2      -0.085750
     27 H1          -1.4540     2.8090    -1.9660 hn         1 0D2       0.360500
     28 H2          -0.2320     1.7870     1.7220 hn         1 0D2       0.366500
     29 H3           2.1780    -0.1150    -2.1230 ha         1 0D2       0.125000
     30 H4           4.6300    -0.2010    -1.9510 ha         1 0D2       0.120500
     31 H5           5.7740     0.4870     0.1530 ha         1 0D2       0.119000
     32 H6           4.4250     1.2720     2.0940 ha         1 0D2       0.120500
     33 H7           1.9690     1.3720     1.9490 ha         1 0D2       0.125000
     34 H8           0.2190    -1.7890    -1.6890 hn         1 0D2       0.366500
     35 H9           1.4400    -2.8100     1.9990 hn         1 0D2       0.360500
     36 H10         -1.9820    -1.3730    -1.9160 ha         1 0D2       0.125000
     37 H11         -4.4380    -1.2730    -2.0610 ha         1 0D2       0.120500
     38 H12         -5.7880    -0.4880    -0.1200 ha         1 0D2       0.119000
     39 H13         -4.6440     0.1990     1.9840 ha         1 0D2       0.120500
     40 H14         -2.1920     0.1140     2.1570 ha         1 0D2       0.125000
@<TRIPOS>BOND
     1     1     2 2   
     2     2     3 1   
     3     2     4 1   
     4     3     6 1   
     5     3    27 1   
     6     4     5 1   
     7     4     8 1   
     8     4    14 1   
     9     5     6 1   
    10     5    28 1   
    11     6     7 2   
    12     8     9 ar  
    13     8    13 ar  
    14     9    10 ar  
    15     9    29 1   
    16    10    11 ar  
    17    10    30 1   
    18    11    12 ar  
    19    11    31 1   
    20    12    13 ar  
    21    12    32 1   
    22    13    33 1   
    23    14    15 1   
    24    14    18 1   
    25    14    21 1   
    26    15    16 1   
    27    15    34 1   
    28    16    17 2   
    29    16    20 1   
    30    18    19 2   
    31    18    20 1   
    32    20    35 1   
    33    21    22 ar  
    34    21    26 ar  
    35    22    23 ar  
    36    22    36 1   
    37    23    24 ar  
    38    23    37 1   
    39    24    25 ar  
    40    24    38 1   
    41    25    26 ar  
    42    25    39 1   
    43    26    40 1   
@<TRIPOS>SUBSTRUCTURE
     1 0D2         1 TEMP              0 ****  ****    0 ROOT
