@<TRIPOS>MOLECULE
0D2
   40    43     1     0     0
SMALL
abcg2


@<TRIPOS>ATOM
      1 O20         -0.0850     0.6790    -2.5470 o          1 0D2      -0.517500
      2 C19         -0.2380     1.2100    -1.4740 c          1 0D2       0.580000
      3 N16         -0.9400     2.3370    -1.2140 ns         1 0D2      -0.472000
      4 C18          0.3020     0.7160    -0.1210 c5         1 0D2       0.090700
      5 N17         -0.2530     1.6970     0.7650 ns         1 0D2      -0.514900
      6 C15         -0.9930     2.6410     0.1430 c          1 0D2       0.625000
      7 O14         -1.5870     3.5700     0.6340 o          1 0D2      -0.531000
      8 C21          1.8250     0.6790    -0.0790 ca         1 0D2      -0.113300
      9 C26          2.5790     0.1450    -1.1240 ca         1 0D2      -0.085750
     10 C25          3.9620     0.0760    -1.0330 ca         1 0D2      -0.110000
     11 C24          4.6170     0.5330     0.1000 ca         1 0D2      -0.092000
     12 C23          3.8760     1.0730     1.1410 ca         1 0D2      -0.110000
     13 C22          2.4940     1.1480     1.0500 ca         1 0D2      -0.085750
     14 C5          -0.3150    -0.7180     0.1540 c5         1 0D2       0.090700
     15 N4           0.2400    -1.7000    -0.7310 ns         1 0D2      -0.514900
     16 C3           0.9790    -2.6440    -0.1080 c          1 0D2       0.625000
     17 O13          1.5700    -3.5760    -0.5980 o          1 0D2      -0.531000
     18 C1           0.2260    -1.2110     1.5070 c          1 0D2       0.580000
     19 O12          0.0730    -0.6780     2.5800 o          1 0D2      -0.517500
     20 N2           0.9280    -2.3370     1.2490 ns         1 0D2      -0.472000
     21 C6          -1.8380    -0.6800     0.1120 ca         1 0D2      -0.113300
     22 C7          -2.5060    -1.1480    -1.0180 ca         1 0D2      -0.085750
     23 C8          -3.8890    -1.0720    -1.1090 ca         1 0D2      -0.110000
     24 C9          -4.6300    -0.5330    -0.0690 ca         1 0D2      -0.092000
     25 C10         -3.9750    -0.0770     1.0660 ca         1 0D2      -0.110000
     26 C11         -2.5920    -0.1470     1.1570 ca         1 0D2      -0.085750
     27 H1          -1.4230     2.8780    -1.9180 hn         1 0D2       0.360500
     28 H2          -0.1940     1.6540     1.7700 hn         1 0D2       0.366500
     29 H3           2.1070    -0.2090    -2.0280 ha         1 0D2       0.125000
     30 H4           4.5250    -0.3380    -1.8590 ha         1 0D2       0.120500
     31 H5           5.6960     0.4760     0.1690 ha         1 0D2       0.119000
     32 H6           4.3700     1.4440     2.0290 ha         1 0D2       0.120500
     33 H7           1.9540     1.5890     1.8750 ha         1 0D2       0.125000
     34 H8           0.1750    -1.6620    -1.7350 hn         1 0D2       0.366500
     35 H9           1.4110    -2.8780     1.9530 hn         1 0D2       0.360500
     36 H10         -1.9650    -1.5870    -1.8440 ha         1 0D2       0.125000
     37 H11         -4.3830    -1.4410    -1.9980 ha         1 0D2       0.120500
     38 H12         -5.7080    -0.4750    -0.1380 ha         1 0D2       0.119000
     39 H13         -4.5380     0.3370     1.8920 ha         1 0D2       0.120500
     40 H14         -2.1210     0.2070     2.0610 ha         1 0D2       0.125000
@<TRIPOS>BOND
     1     1     2 2   
     2     2     3 1   
     3     2     4 1   
     4     3     6 1   
     5     3    27 1   
     6     4     5 1   
     7     4     8 1   
     8     4    14 1   
     9     5     6 1   
    10     5    28 1   
    11     6     7 2   
    12     8     9 ar  
    13     8    13 ar  
    14     9    10 ar  
    15     9    29 1   
    16    10    11 ar  
    17    10    30 1   
    18    11    12 ar  
    19    11    31 1   
    20    12    13 ar  
    21    12    32 1   
    22    13    33 1   
    23    14    15 1   
    24    14    18 1   
    25    14    21 1   
    26    15    16 1   
    27    15    34 1   
    28    16    17 2   
    29    16    20 1   
    30    18    19 2   
    31    18    20 1   
    32    20    35 1   
    33    21    22 ar  
    34    21    26 ar  
    35    22    23 ar  
    36    22    36 1   
    37    23    24 ar  
    38    23    37 1   
    39    24    25 ar  
    40    24    38 1   
    41    25    26 ar  
    42    25    39 1   
    43    26    40 1   
@<TRIPOS>SUBSTRUCTURE
     1 0D2         1 TEMP              0 ****  ****    0 ROOT
