@<TRIPOS>MOLECULE
0D3
   43    43     1     0     0
SMALL
No Charge or Current Charge


@<TRIPOS>ATOM
      1 C1          27.8410    59.2040    50.5910 c          1 0D3       0.605100
      2 O1          27.5000    60.3530    50.3460 o          1 0D3      -0.602100
      3 C2          27.1980    58.3670    51.7090 c3         1 0D3      -0.129700
      4 C3          25.7090    58.0770    51.3800 c3         1 0D3      -0.022100
      5 C7          25.5550    57.3130    50.0700 ca         1 0D3      -0.088300
      6 C8          25.8080    55.9280    50.0240 ca         1 0D3      -0.100000
      7 C9          25.6870    55.2250    48.8130 ca         1 0D3      -0.105000
      8 C4          25.3140    55.9020    47.6400 ca         1 0D3      -0.100000
      9 C5          25.0620    57.2840    47.6800 ca         1 0D3      -0.105000
     10 C6          25.1810    57.9870    48.8910 ca         1 0D3      -0.100000
     11 C           27.3940    59.0720    53.0720 c3         1 0D3       0.076600
     12 S           26.8790    58.0510    54.5340 sh         1 0D3      -0.435800
     13 N           28.8320    58.5660    49.8800 ns         1 0D3      -0.491900
     14 CA          29.5750    59.1470    48.7420 c3         1 0D3       0.044700
     15 C11         30.1980    58.0170    47.8690 c          1 0D3       0.588100
     16 O           30.2370    56.8440    48.2200 o          1 0D3      -0.610100
     17 CB          30.6450    60.1480    49.2410 c3         1 0D3      -0.106100
     18 N1          30.7140    58.4250    46.6540 ns         1 0D3      -0.488900
     19 CA1         31.2950    57.5080    45.6380 c3         1 0D3       0.013000
     20 C10         32.8320    57.3470    45.7460 c          1 0D3       0.584100
     21 O2          33.4720    56.6090    45.0150 o          1 0D3      -0.608100
     22 N2          33.4730    58.0660    46.6970 nt         1 0D3      -0.606000
     23 H2          27.7190    57.4030    51.7570 hc         1 0D3       0.051700
     24 H31         25.2590    57.4940    52.1930 hc         1 0D3       0.068200
     25 H32         25.1520    59.0210    51.3430 hc         1 0D3       0.068200
     26 H7          26.1010    55.3960    50.9270 ha         1 0D3       0.108500
     27 H3          25.8840    54.1550    48.7840 ha         1 0D3       0.109000
     28 H4          25.2220    55.3580    46.7030 ha         1 0D3       0.110000
     29 H5          24.7740    57.8100    46.7720 ha         1 0D3       0.109000
     30 H6          24.9890    59.0580    48.9090 ha         1 0D3       0.108500
     31 H'1         28.4550    59.3260    53.1970 h1         1 0D3       0.081200
     32 H'2         26.8250    60.0120    53.0850 h1         1 0D3       0.081200
     33 HS          27.7480    57.0330    54.3200 hs         1 0D3       0.204800
     34 H           29.0240    57.6010    50.1270 hn         1 0D3       0.324500
     35 HA          28.8620    59.6850    48.1030 h1         1 0D3       0.070700
     36 HB1         31.1700    60.6150    48.4000 hc         1 0D3       0.052700
     37 HB2         30.1850    60.9480    49.8330 hc         1 0D3       0.052700
     38 HB3         31.3860    59.6400    49.8700 hc         1 0D3       0.052700
     39 H1          30.6220    59.4100    46.4250 hn         1 0D3       0.325500
     40 HA2         30.8420    56.5130    45.7290 h1         1 0D3       0.080200
     41 HA3         31.0720    57.9000    44.6380 h1         1 0D3       0.080200
     42 HN1         32.9470    58.6730    47.3060 hn         1 0D3       0.323500
     43 HN2         34.4740    57.9810    46.7920 hn         1 0D3       0.323500
@<TRIPOS>BOND
     1     1     2 2   
     2     1     3 1   
     3     1    13 1   
     4     3     4 1   
     5     3    11 1   
     6     3    23 1   
     7     4     5 1   
     8     4    24 1   
     9     4    25 1   
    10     5     6 ar  
    11     5    10 ar  
    12     6     7 ar  
    13     6    26 1   
    14     7     8 ar  
    15     7    27 1   
    16     8     9 ar  
    17     8    28 1   
    18     9    10 ar  
    19     9    29 1   
    20    10    30 1   
    21    11    12 1   
    22    11    31 1   
    23    11    32 1   
    24    12    33 1   
    25    13    14 1   
    26    13    34 1   
    27    14    15 1   
    28    14    17 1   
    29    14    35 1   
    30    15    16 2   
    31    15    18 1   
    32    17    36 1   
    33    17    37 1   
    34    17    38 1   
    35    18    19 1   
    36    18    39 1   
    37    19    20 1   
    38    19    40 1   
    39    19    41 1   
    40    20    21 2   
    41    20    22 1   
    42    22    42 1   
    43    22    43 1   
@<TRIPOS>SUBSTRUCTURE
     1 0D3         1 TEMP              0 ****  ****    0 ROOT
