@<TRIPOS>MOLECULE
0D3
   43    43     1     0     0
SMALL
bcc


@<TRIPOS>ATOM
      1 C1          28.0120    59.2290    50.3910 c          1 0D3       0.672100
      2 O1          27.7150    60.0100    49.4980 o          1 0D3      -0.602100
      3 C2          26.9870    58.7360    51.3990 c3         1 0D3      -0.129700
      4 C3          25.7690    58.1640    50.6680 c3         1 0D3      -0.022100
      5 C7          26.1110    57.0420    49.7250 ca         1 0D3      -0.088300
      6 C8          26.6240    55.8380    50.2060 ca         1 0D3      -0.118000
      7 C9          26.9390    54.8010    49.3400 ca         1 0D3      -0.123000
      8 C4          26.7420    54.9490    47.9720 ca         1 0D3      -0.118000
      9 C5          26.2300    56.1410    47.4810 ca         1 0D3      -0.123000
     10 C6          25.9210    57.1780    48.3520 ca         1 0D3      -0.118000
     11 C           26.6180    59.9120    52.3080 c3         1 0D3       0.028700
     12 S           25.4780    59.4810    53.6580 sh         1 0D3      -0.387900
     13 N           29.2650    58.7760    50.5600 ns         1 0D3      -0.558900
     14 CA          30.3310    59.1400    49.6590 c3         1 0D3       0.044700
     15 C11         30.0750    58.5280    48.2820 c          1 0D3       0.655100
     16 O           29.7290    57.3610    48.1640 o          1 0D3      -0.610100
     17 CB          31.6620    58.6270    50.1930 c3         1 0D3      -0.106100
     18 N1          30.3040    59.3360    47.2390 ns         1 0D3      -0.555900
     19 CA1         30.1020    58.9380    45.8640 c3         1 0D3       0.013000
     20 C10         31.3320    58.2840    45.2370 c          1 0D3       0.651100
     21 O2          31.9270    58.8050    44.3080 o          1 0D3      -0.608100
     22 N2          31.6860    57.1140    45.7870 nt         1 0D3      -0.673000
     23 H2          27.4350    57.9520    52.0180 hc         1 0D3       0.051700
     24 H31         25.0610    57.8120    51.4200 hc         1 0D3       0.068200
     25 H32         25.2710    58.9670    50.1200 hc         1 0D3       0.068200
     26 H7          26.7720    55.7060    51.2720 ha         1 0D3       0.126500
     27 H3          27.3350    53.8730    49.7330 ha         1 0D3       0.127000
     28 H4          26.9850    54.1390    47.2960 ha         1 0D3       0.128000
     29 H5          26.0720    56.2680    46.4170 ha         1 0D3       0.127000
     30 H6          25.5230    58.1070    47.9600 ha         1 0D3       0.126500
     31 H'1         27.5130    60.3600    52.7390 h1         1 0D3       0.081200
     32 H'2         26.1090    60.6880    51.7340 h1         1 0D3       0.081200
     33 HS          26.3210    58.7060    54.3500 hs         1 0D3       0.204800
     34 H           29.4500    58.0880    51.2730 hn         1 0D3       0.324500
     35 HA          30.3780    60.2290    49.5810 h1         1 0D3       0.070700
     36 HB1         32.4720    58.8970    49.5170 hc         1 0D3       0.052700
     37 HB2         31.8740    59.0660    51.1670 hc         1 0D3       0.052700
     38 HB3         31.6520    57.5410    50.2960 hc         1 0D3       0.052700
     39 H1          30.5840    60.2890    47.4080 hn         1 0D3       0.325500
     40 HA2         29.2510    58.2550    45.8070 h1         1 0D3       0.080200
     41 HA3         29.8550    59.8250    45.2860 h1         1 0D3       0.080200
     42 HN1         31.1460    56.6940    46.5270 hn         1 0D3       0.323500
     43 HN2         32.4980    56.6200    45.4540 hn         1 0D3       0.323500
@<TRIPOS>BOND
     1     1     2 2   
     2     1     3 1   
     3     1    13 1   
     4     3     4 1   
     5     3    11 1   
     6     3    23 1   
     7     4     5 1   
     8     4    24 1   
     9     4    25 1   
    10     5     6 ar  
    11     5    10 ar  
    12     6     7 ar  
    13     6    26 1   
    14     7     8 ar  
    15     7    27 1   
    16     8     9 ar  
    17     8    28 1   
    18     9    10 ar  
    19     9    29 1   
    20    10    30 1   
    21    11    12 1   
    22    11    31 1   
    23    11    32 1   
    24    12    33 1   
    25    13    14 1   
    26    13    34 1   
    27    14    15 1   
    28    14    17 1   
    29    14    35 1   
    30    15    16 2   
    31    15    18 1   
    32    17    36 1   
    33    17    37 1   
    34    17    38 1   
    35    18    19 1   
    36    18    39 1   
    37    19    20 1   
    38    19    40 1   
    39    19    41 1   
    40    20    21 2   
    41    20    22 1   
    42    22    42 1   
    43    22    43 1   
@<TRIPOS>SUBSTRUCTURE
     1 0D3         1 TEMP              0 ****  ****    0 ROOT
