@<TRIPOS>MOLECULE
0D5
  144   145     1     0     0
SMALL
bcc


@<TRIPOS>ATOM
      1 C11        127.3460   242.3110   126.0480 c          1 0D5       0.921600
      2 O11        127.6810   243.4750   126.3630 o          1 0D5      -0.831300
      3 O21        126.4520   241.9750   125.2550 o          1 0D5      -0.831300
      4 C21        128.1550   241.1950   126.7600 c3         1 0D5      -0.019300
      5 N21        127.6200   239.8840   126.5150 ns         1 0D5      -0.528900
      6 C3         128.2780   241.4920   128.2690 c3         1 0D5      -0.129700
      7 C4         126.9050   241.7960   128.8370 c          1 0D5       0.682100
      8 O3         125.9990   240.9680   128.8000 o          1 0D5      -0.603100
      9 C41        128.9520   240.3590   129.0360 c3         1 0D5      -0.080100
     10 N3         126.7540   243.0290   129.3520 ns         1 0D5      -0.574900
     11 CA3        125.5020   243.5750   129.8110 c3         1 0D5       0.016700
     12 C5         125.0580   244.8010   129.0030 c          1 0D5       0.652100
     13 O4         124.1720   245.5250   129.4410 o          1 0D5      -0.625100
     14 CB3        125.4450   243.8260   131.3230 c3         1 0D5      -0.071400
     15 CG1        126.1360   245.0550   131.9150 c3         1 0D5      -0.095400
     16 CD         127.6530   245.0270   132.0710 c3         1 0D5       0.034300
     17 NE         128.4280   245.2090   130.8490 nu         1 0D5      -0.401100
     18 CZ         128.5920   246.3750   130.2180 cz         1 0D5       0.527300
     19 NH1        129.3950   246.4340   129.1630 nv         1 0D5      -0.501200
     20 NH2        127.9580   247.4650   130.6210 nv         1 0D5      -0.501200
     21 C12        130.0390   254.2290   127.1950 c3         1 0D5       0.127700
     22 O12        130.3510   252.9300   126.7600 os         1 0D5      -0.416600
     23 C22        129.2520   252.0490   126.6740 c3         1 0D5       0.159100
     24 C31        128.9950   251.7050   125.2030 c3         1 0D5      -0.047100
     25 C42        128.7080   252.9240   124.3750 ca         1 0D5      -0.077300
     26 C51        127.4110   253.4250   124.2830 ca         1 0D5      -0.121000
     27 C6         127.1400   254.5770   123.5560 ca         1 0D5      -0.131500
     28 C7         128.1670   255.2480   122.9060 ca         1 0D5      -0.131000
     29 C8         129.4630   254.7550   122.9850 ca         1 0D5      -0.131500
     30 C9         129.7290   253.6030   123.7140 ca         1 0D5      -0.121000
     31 C10        129.5440   250.7900   127.5130 c3         1 0D5      -0.034500
     32 C111       129.9130   251.1490   128.9540 c3         1 0D5      -0.079100
     33 C121       128.3490   249.8890   127.5270 c2         1 0D5      -0.234200
     34 C13        128.1650   248.7270   126.8790 ce         1 0D5      -0.054200
     35 C14        129.1640   248.1200   125.9390 c3         1 0D5      -0.073900
     36 C15        126.9060   248.0110   127.0900 ce         1 0D5      -0.231000
     37 C17        125.3500   246.0590   126.9010 c3         1 0D5       0.140900
     38 N11        125.6630   244.9810   127.8240 ns         1 0D5      -0.567900
     39 C18        124.7170   245.4950   125.6140 c3         1 0D5      -0.158700
     40 C19        124.3220   246.6150   124.6590 c3         1 0D5      -0.072100
     41 C20        123.5070   244.6580   125.9940 c          1 0D5       0.663100
     42 O31        122.4760   245.1850   126.3980 o          1 0D5      -0.625100
     43 C1A        122.5570   238.5800   126.6940 c          1 0D5       0.670100
     44 C23        122.1660   240.0190   126.8940 c3         1 0D5      -0.145400
     45 C32        123.0860   240.9910   126.1690 c3         1 0D5      -0.066400
     46 C43        122.5910   242.4340   126.2920 c3         1 0D5      -0.027300
     47 C24        121.3080   242.6150   125.4350 c          1 0D5       0.935600
     48 N4         123.6530   243.3330   125.8950 ns         1 0D5      -0.524900
     49 O13        123.3900   238.2410   125.8650 o          1 0D5      -0.602100
     50 O1         120.2300   242.4250   126.0340 o          1 0D5      -0.833300
     51 OXT        121.4690   242.8670   124.2290 o          1 0D5      -0.833300
     52 N          121.9530   237.6380   127.4770 n          1 0D5      -0.429000
     53 CM         120.7710   237.9190   128.2790 c3         1 0D5       0.093300
     54 CA         122.3030   236.2880   127.2400 ce         1 0D5      -0.030600
     55 CB         121.4000   235.3460   126.9910 c2         1 0D5      -0.206000
     56 C          123.7490   235.9040   127.3830 c          1 0D5       0.681300
     57 O          124.2150   234.9310   126.8150 o          1 0D5      -0.596100
     58 N1         124.4700   236.6760   128.2170 ns         1 0D5      -0.573900
     59 CA1        125.8580   236.4190   128.5100 c3         1 0D5       0.037700
     60 CB1        126.2630   237.2080   129.7500 c3         1 0D5      -0.106100
     61 C1         126.8160   236.7510   127.3630 c          1 0D5       0.657100
     62 O5         127.9750   236.3690   127.4210 o          1 0D5      -0.634100
     63 N2         126.3340   237.4910   126.3520 ns         1 0D5      -0.553900
     64 CA2        127.1480   237.8740   125.2240 c3         1 0D5       0.034700
     65 C2         127.9750   239.1380   125.4650 c          1 0D5       0.670100
     66 O2         128.8890   239.4180   124.7000 o          1 0D5      -0.637100
     67 CB2        126.2800   238.0880   123.9810 c3         1 0D5      -0.083400
     68 CG         125.4910   236.8610   123.5190 c3         1 0D5      -0.059700
     69 CD1        124.6120   237.2500   122.3350 c3         1 0D5      -0.084600
     70 CD2        126.4000   235.6930   123.1570 c3         1 0D5      -0.084600
     71 H2         129.1720   241.2160   126.3580 h1         1 0D5       0.072700
     72 HN22       126.7920   239.6190   127.0280 hn         1 0D5       0.327500
     73 H3         128.9060   242.3800   128.3550 hc         1 0D5       0.035700
     74 H41        129.1250   240.6440   130.0740 hc         1 0D5       0.035367
     75 H42        128.3570   239.4470   129.0330 hc         1 0D5       0.035367
     76 H43        129.9190   240.1280   128.5880 hc         1 0D5       0.035367
     77 H4         127.5510   243.6440   129.3210 hn         1 0D5       0.287500
     78 HA2        124.7490   242.8090   129.6020 h1         1 0D5       0.127700
     79 HB23       124.3910   243.8970   131.5920 hc         1 0D5       0.063200
     80 HB32       125.8130   242.9230   131.8180 hc         1 0D5       0.063200
     81 HG2        125.8120   245.9570   131.3940 hc         1 0D5       0.061700
     82 HG3        125.7520   245.1640   132.9330 hc         1 0D5       0.061700
     83 HD2        127.9530   245.7790   132.8070 h1         1 0D5       0.057200
     84 HD3        127.9640   244.0660   132.4790 h1         1 0D5       0.057200
     85 HE         129.1260   244.5060   130.6570 hn         1 0D5       0.313700
     86 HH11       129.5320   247.3000   128.6690 hn         1 0D5       0.328700
     87 HH12       129.7640   245.5980   128.7390 hn         1 0D5       0.328700
     88 HH21       128.0680   248.3380   130.1280 hn         1 0D5       0.328700
     89 HH22       127.4710   247.5060   131.5000 hn         1 0D5       0.328700
     90 H11        130.9670   254.8010   127.2230 h1         1 0D5       0.028033
     91 H21        129.3440   254.7400   126.5210 h1         1 0D5       0.028033
     92 H31        129.6030   254.2340   128.2010 h1         1 0D5       0.028033
     93 H5         129.8670   251.1750   124.8090 hc         1 0D5       0.062700
     94 H6         128.1510   251.0150   125.1440 hc         1 0D5       0.062700
     95 H7         126.6030   252.9060   124.7850 ha         1 0D5       0.132500
     96 H8         126.1240   254.9470   123.4940 ha         1 0D5       0.129000
     97 H9         127.9590   256.1450   122.3370 ha         1 0D5       0.127000
     98 H10        130.2700   255.2680   122.4770 ha         1 0D5       0.129000
     99 H111       130.7430   253.2250   123.7670 ha         1 0D5       0.132500
    100 H12        130.3980   250.2790   127.0570 hc         1 0D5       0.059700
    101 H13        130.0970   250.2450   129.5360 hc         1 0D5       0.028700
    102 H14        130.8110   251.7620   128.9980 hc         1 0D5       0.028700
    103 H15        129.1040   251.6980   129.4410 hc         1 0D5       0.028700
    104 H16        127.5290   250.2390   128.1540 ha         1 0D5       0.113000
    105 H17        129.4060   247.0910   126.2150 hc         1 0D5       0.051367
    106 H18        128.7590   248.0800   124.9250 hc         1 0D5       0.051367
    107 H19        130.0950   248.6790   125.8990 hc         1 0D5       0.051367
    108 H20        126.1750   248.5120   127.7210 ha         1 0D5       0.122000
    109 H211       127.3310   246.2760   125.9780 ha         1 0D5       0.151000
    110 H22        124.6340   246.7230   127.3890 h1         1 0D5       0.086700
    111 H23        126.3740   244.3300   127.4900 hn         1 0D5       0.374500
    112 H24        128.3490   252.5280   127.0830 h1         1 0D5       0.041700
    113 H25        125.4650   244.8590   125.1290 hc         1 0D5       0.090700
    114 H26        123.8620   246.2170   123.7540 hc         1 0D5       0.034700
    115 H27        123.6130   247.2980   125.1270 hc         1 0D5       0.034700
    116 H28        125.1940   247.1950   124.3570 hc         1 0D5       0.034700
    117 H2A        121.1290   240.1460   126.5700 hc         1 0D5       0.077700
    118 H2A1       122.1660   240.2560   127.9620 hc         1 0D5       0.077700
    119 H32        124.0890   240.9130   126.5970 hc         1 0D5       0.057200
    120 H3A        123.1750   240.7310   125.1120 hc         1 0D5       0.057200
    121 H44        122.3410   242.6280   127.3410 h1         1 0D5       0.030700
    122 HN4        124.5420   242.9520   125.5850 hn         1 0D5       0.344500
    123 HM1        120.8660   238.8760   128.7830 h1         1 0D5       0.042033
    124 HM2        119.8610   237.9310   127.6770 h1         1 0D5       0.042033
    125 HM3        120.6740   237.1510   129.0420 h1         1 0D5       0.042033
    126 HB1        121.6950   234.3130   126.8880 ha         1 0D5       0.128000
    127 HB2        120.3450   235.5700   126.9030 ha         1 0D5       0.128000
    128 H          124.0120   237.4220   128.7180 hn         1 0D5       0.330500
    129 HA         125.9930   235.3530   128.7110 h1         1 0D5       0.079700
    130 HB11       127.3000   237.0070   130.0090 hc         1 0D5       0.048700
    131 HB21       126.1510   238.2810   129.5890 hc         1 0D5       0.048700
    132 HB3        125.6420   236.9200   130.5980 hc         1 0D5       0.048700
    133 H1         125.3570   237.7590   126.3440 hn         1 0D5       0.356500
    134 HA1        127.8700   237.0780   125.0310 h1         1 0D5       0.082700
    135 HB22       125.5890   238.9150   124.1730 hc         1 0D5       0.072700
    136 HB31       126.9310   238.4130   123.1660 hc         1 0D5       0.072700
    137 HG         124.8320   236.5390   124.3290 hc         1 0D5       0.065700
    138 HD11       124.0160   236.4030   121.9910 hc         1 0D5       0.027867
    139 HD12       123.9230   238.0550   122.5990 hc         1 0D5       0.027867
    140 HD13       125.2170   237.5940   121.4930 hc         1 0D5       0.027867
    141 HD21       125.8160   234.8520   122.7790 hc         1 0D5       0.027867
    142 HD22       127.1140   235.9730   122.3790 hc         1 0D5       0.027867
    143 HD23       126.9680   235.3280   124.0140 hc         1 0D5       0.027867
    144 C16        126.6150   246.8060   126.5990 c2         1 0D5      -0.085200
@<TRIPOS>BOND
     1     1     2 1   
     2     1     3 1   
     3     1     4 1   
     4     4     5 1   
     5     4     6 1   
     6     4    71 1   
     7     5    65 1   
     8     5    72 1   
     9     6     7 1   
    10     6     9 1   
    11     6    73 1   
    12     7     8 2   
    13     7    10 1   
    14     9    74 1   
    15     9    75 1   
    16     9    76 1   
    17    10    11 1   
    18    10    77 1   
    19    11    12 1   
    20    11    14 1   
    21    11    78 1   
    22    12    13 2   
    23    12    38 1   
    24    14    15 1   
    25    14    79 1   
    26    14    80 1   
    27    15    16 1   
    28    15    81 1   
    29    15    82 1   
    30    16    17 1   
    31    16    83 1   
    32    16    84 1   
    33    17    18 2   
    34    17    85 1   
    35    18    19 1   
    36    18    20 1   
    37    19    86 1   
    38    19    87 1   
    39    20    88 1   
    40    20    89 1   
    41    21    22 1   
    42    21    90 1   
    43    21    91 1   
    44    21    92 1   
    45    22    23 1   
    46    23    24 1   
    47    23    31 1   
    48    23   112 1   
    49    24    25 1   
    50    24    93 1   
    51    24    94 1   
    52    25    26 ar  
    53    25    30 ar  
    54    26    27 ar  
    55    26    95 1   
    56    27    28 ar  
    57    27    96 1   
    58    28    29 ar  
    59    28    97 1   
    60    29    30 ar  
    61    29    98 1   
    62    30    99 1   
    63    31    32 1   
    64    31    33 1   
    65    31   100 1   
    66    32   101 1   
    67    32   102 1   
    68    32   103 1   
    69    33    34 2   
    70    33   104 1   
    71    34    35 1   
    72    34    36 1   
    73    35   105 1   
    74    35   106 1   
    75    35   107 1   
    76    36   108 1   
    77    36   144 2   
    78    37    38 1   
    79    37    39 1   
    80    37   110 1   
    81    37   144 1   
    82    38   111 1   
    83    39    40 1   
    84    39    41 1   
    85    39   113 1   
    86    40   114 1   
    87    40   115 1   
    88    40   116 1   
    89    41    42 2   
    90    41    48 1   
    91    43    44 1   
    92    43    49 2   
    93    43    52 1   
    94    44    45 1   
    95    44   117 1   
    96    44   118 1   
    97    45    46 1   
    98    45   119 1   
    99    45   120 1   
   100    46    47 1   
   101    46    48 1   
   102    46   121 1   
   103    47    50 1   
   104    47    51 1   
   105    48   122 1   
   106    52    53 1   
   107    52    54 1   
   108    53   123 1   
   109    53   124 1   
   110    53   125 1   
   111    54    55 2   
   112    54    56 1   
   113    55   126 1   
   114    55   127 1   
   115    56    57 2   
   116    56    58 1   
   117    58    59 1   
   118    58   128 1   
   119    59    60 1   
   120    59    61 1   
   121    59   129 1   
   122    60   130 1   
   123    60   131 1   
   124    60   132 1   
   125    61    62 2   
   126    61    63 1   
   127    63    64 1   
   128    63   133 1   
   129    64    65 1   
   130    64    67 1   
   131    64   134 1   
   132    65    66 2   
   133    67    68 1   
   134    67   135 1   
   135    67   136 1   
   136    68    69 1   
   137    68    70 1   
   138    68   137 1   
   139    69   138 1   
   140    69   139 1   
   141    69   140 1   
   142    70   141 1   
   143    70   142 1   
   144    70   143 1   
   145   109   144 1   
@<TRIPOS>SUBSTRUCTURE
     1 0D5         1 TEMP              0 ****  ****    0 ROOT
