@<TRIPOS>MOLECULE
0D5
  144   145     1     0     0
SMALL
No Charge or Current Charge


@<TRIPOS>ATOM
      1 C11        127.4480   242.3910   126.2050 c          1 0D5       0.711000
      2 O11        127.8340   243.5020   126.5490 o          1 0D5      -0.726000
      3 O21        126.5690   242.2220   125.3720 o          1 0D5      -0.726000
      4 C21        127.9950   241.1620   127.0130 c3         1 0D5      -0.019300
      5 N21        127.3430   239.8820   126.6380 ns         1 0D5      -0.461900
      6 C3         127.9290   241.4100   128.5480 c3         1 0D5      -0.129700
      7 C4         126.5410   241.9500   128.9450 c          1 0D5       0.615100
      8 O3         125.5160   241.2870   128.8940 o          1 0D5      -0.603100
      9 C41        128.3450   240.1930   129.4110 c3         1 0D5      -0.080100
     10 N3         126.5560   243.2680   129.3330 ns         1 0D5      -0.507900
     11 CA3        125.4030   244.0710   129.7700 c3         1 0D5       0.016700
     12 C5         125.0060   245.1580   128.7220 c          1 0D5       0.585100
     13 O4         124.0810   245.9340   128.9230 o          1 0D5      -0.625100
     14 CB3        125.7070   244.6900   131.1600 c3         1 0D5      -0.071400
     15 CG1        126.8730   245.7240   131.2180 c3         1 0D5      -0.095400
     16 CD         128.3140   245.1440   131.1890 c3         1 0D5       0.063600
     17 NE         128.8690   244.9920   129.8240 nu         1 0D5      -0.886000
     18 CZ         129.1020   245.9160   128.9190 cz         1 0D5       0.932600
     19 NH1        129.4550   245.5240   127.7360 nv         1 0D5      -0.601800
     20 NH2        129.3180   247.1430   129.2830 nv         1 0D5      -0.601800
     21 C12        130.5320   254.4900   127.0920 c3         1 0D5       0.150900
     22 O12        130.7050   253.0600   127.0950 os         1 0D5      -0.463000
     23 C22        129.5010   252.2530   127.0980 c3         1 0D5       0.182300
     24 C31        128.8040   252.3420   125.7020 c3         1 0D5      -0.047100
     25 C42        127.9960   253.6150   125.4540 ca         1 0D5      -0.077300
     26 C51        126.9740   254.0020   126.3450 ca         1 0D5      -0.103000
     27 C6         126.2300   255.1700   126.1090 ca         1 0D5      -0.113500
     28 C7         126.4950   255.9580   124.9770 ca         1 0D5      -0.113000
     29 C8         127.5030   255.5720   124.0770 ca         1 0D5      -0.113500
     30 C9         128.2470   254.4030   124.3120 ca         1 0D5      -0.103000
     31 C10        129.9310   250.8010   127.4820 c3         1 0D5      -0.034500
     32 C111       130.6640   250.7460   128.8440 c3         1 0D5      -0.079100
     33 C121       128.7400   249.8460   127.5190 c2         1 0D5      -0.284200
     34 C13        128.4180   248.8640   126.6430 ce         1 0D5      -0.054200
     35 C14        129.2150   248.5880   125.3720 c3         1 0D5      -0.073900
     36 C15        127.1900   248.0820   126.8700 ce         1 0D5      -0.281000
     37 C17        125.5590   246.1670   126.4700 c3         1 0D5       0.140900
     38 N11        125.7640   245.2220   127.5680 ns         1 0D5      -0.500900
     39 C18        125.0620   245.4430   125.1960 c3         1 0D5      -0.158700
     40 C19        124.8570   246.3970   123.9910 c3         1 0D5      -0.072100
     41 C20        123.7730   244.6620   125.4910 c          1 0D5       0.596100
     42 O31        122.7160   245.2200   125.7540 o          1 0D5      -0.625100
     43 C1A        122.5440   238.4480   126.3610 c          1 0D5       0.603100
     44 C23        122.1710   239.9410   126.3440 c3         1 0D5      -0.145400
     45 C32        123.2530   240.9010   125.7830 c3         1 0D5      -0.066400
     46 C43        122.7520   242.3590   125.6480 c3         1 0D5      -0.027300
     47 C24        121.6640   242.5010   124.5280 c          1 0D5       0.725000
     48 N4         123.8800   243.2900   125.4230 ns         1 0D5      -0.457900
     49 O13        123.5740   238.0670   125.8240 o          1 0D5      -0.602100
     50 O1         120.5010   242.6750   124.8690 o          1 0D5      -0.728000
     51 OXT        122.0140   242.4560   123.3550 o          1 0D5      -0.728000
     52 N          121.6830   237.5240   127.0200 n          1 0D5      -0.362000
     53 CM         120.3240   237.9430   127.4540 c3         1 0D5       0.093300
     54 CA         122.0010   236.1030   127.0810 ce         1 0D5      -0.030600
     55 CB         121.0690   235.1380   126.8910 c2         1 0D5      -0.306000
     56 C          123.4120   235.8080   127.5790 c          1 0D5       0.614300
     57 O          123.9810   234.7470   127.3580 o          1 0D5      -0.596100
     58 N1         123.9770   236.7520   128.4150 ns         1 0D5      -0.506900
     59 CA1        125.3010   236.6200   129.0590 c3         1 0D5       0.037700
     60 CB1        125.3770   237.5440   130.2920 c3         1 0D5      -0.106100
     61 C1         126.4850   236.8730   128.0710 c          1 0D5       0.590100
     62 O5         127.6430   236.6180   128.3750 o          1 0D5      -0.634100
     63 N2         126.1730   237.3820   126.8250 ns         1 0D5      -0.486900
     64 CA2        127.1540   237.5600   125.7270 c3         1 0D5       0.034700
     65 C2         127.8980   238.9260   125.8090 c          1 0D5       0.603100
     66 O2         128.9490   239.1270   125.2100 o          1 0D5      -0.637100
     67 CB2        126.4960   237.3570   124.3360 c3         1 0D5      -0.083400
     68 CG         125.7750   235.9940   124.1240 c3         1 0D5      -0.059700
     69 CD1        125.0620   235.9560   122.7540 c3         1 0D5      -0.084600
     70 CD2        126.7240   234.7830   124.2860 c3         1 0D5      -0.084600
     71 H2         129.0560   241.0890   126.7450 h1         1 0D5       0.072700
     72 HN22       126.4620   239.6420   127.0750 hn         1 0D5       0.327500
     73 H3         128.6640   242.1980   128.7570 hc         1 0D5       0.035700
     74 H41        128.3880   240.4740   130.4700 hc         1 0D5       0.035367
     75 H42        127.6300   239.3700   129.3090 hc         1 0D5       0.035367
     76 H43        129.3360   239.8290   129.1140 hc         1 0D5       0.035367
     77 H4         127.4680   243.7100   129.3860 hn         1 0D5       0.287500
     78 HA2        124.5280   243.4150   129.8620 h1         1 0D5       0.127700
     79 HB23       124.7950   245.1870   131.5140 hc         1 0D5       0.063200
     80 HB32       125.9040   243.8830   131.8770 hc         1 0D5       0.063200
     81 HG2        126.7440   246.4930   130.4470 hc         1 0D5       0.061700
     82 HG3        126.7700   246.2520   132.1730 hc         1 0D5       0.061700
     83 HD2        128.9680   245.8140   131.7660 h1         1 0D5       0.057200
     84 HD3        128.3250   244.1770   131.7100 h1         1 0D5       0.057200
     85 HE         129.4100   244.1450   129.6760 hn         1 0D5       0.364000
     86 HH11       129.8750   246.1610   127.0830 hn         1 0D5       0.379000
     87 HH12       129.0280   244.6990   127.3270 hn         1 0D5       0.379000
     88 HH21       129.3160   247.8940   128.6110 hn         1 0D5       0.379000
     89 HH22       129.2070   247.4070   130.2460 hn         1 0D5       0.379000
     90 H11        131.4840   254.9840   127.3240 h1         1 0D5       0.028033
     91 H21        130.2080   254.8500   126.1090 h1         1 0D5       0.028033
     92 H31        129.7960   254.8000   127.8450 h1         1 0D5       0.028033
     93 H5         129.5640   252.2020   124.9240 hc         1 0D5       0.062700
     94 H6         128.1150   251.4980   125.5900 hc         1 0D5       0.062700
     95 H7         126.7500   253.3950   127.2190 ha         1 0D5       0.114500
     96 H8         125.4450   255.4640   126.8030 ha         1 0D5       0.111000
     97 H9         125.9190   256.8620   124.7940 ha         1 0D5       0.109000
     98 H10        127.7060   256.1780   123.1970 ha         1 0D5       0.111000
     99 H111       129.0240   254.1150   123.6070 ha         1 0D5       0.114500
    100 H12        130.6580   250.4680   126.7320 hc         1 0D5       0.059700
    101 H13        130.9480   249.7150   129.0860 hc         1 0D5       0.028700
    102 H14        131.5820   251.3450   128.8280 hc         1 0D5       0.028700
    103 H15        130.0220   251.1230   129.6490 hc         1 0D5       0.028700
    104 H16        128.0900   250.0230   128.3780 ha         1 0D5       0.163000
    105 H17        130.0020   247.8450   125.5450 hc         1 0D5       0.051367
    106 H18        128.5790   248.2220   124.5580 hc         1 0D5       0.051367
    107 H19        129.6950   249.4910   124.9800 hc         1 0D5       0.051367
    108 H20        126.5040   248.4870   127.6170 ha         1 0D5       0.172000
    109 H211       127.5010   246.4700   125.5030 ha         1 0D5       0.201000
    110 H22        124.7840   246.8910   126.7630 h1         1 0D5       0.086700
    111 H23        126.4890   244.5140   127.4540 hn         1 0D5       0.374500
    112 H24        128.8070   252.6040   127.8740 h1         1 0D5       0.041700
    113 H25        125.8340   244.7210   124.9110 hc         1 0D5       0.090700
    114 H26        124.4770   245.8420   123.1240 hc         1 0D5       0.034700
    115 H27        124.1340   247.1860   124.2350 hc         1 0D5       0.034700
    116 H28        125.7980   246.8750   123.6960 hc         1 0D5       0.034700
    117 H2A        121.2260   240.0280   125.7970 hc         1 0D5       0.077700
    118 H2A1       121.8700   240.2400   127.3540 hc         1 0D5       0.077700
    119 H32        124.1210   240.8750   126.4520 hc         1 0D5       0.057200
    120 H3A        123.5960   240.5480   124.8030 hc         1 0D5       0.057200
    121 H44        122.2890   242.6450   126.6010 h1         1 0D5       0.030700
    122 HN4        124.8090   242.9070   125.2410 hn         1 0D5       0.344500
    123 HM1        120.3830   238.8230   128.1050 h1         1 0D5       0.042033
    124 HM2        119.7090   238.1770   126.5760 h1         1 0D5       0.042033
    125 HM3        119.8380   237.1450   128.0280 h1         1 0D5       0.042033
    126 HB1        121.3150   234.0830   127.0170 ha         1 0D5       0.178000
    127 HB2        120.0470   235.3600   126.5880 ha         1 0D5       0.178000
    128 H          123.4050   237.5620   128.6250 hn         1 0D5       0.330500
    129 HA         125.4070   235.5830   129.4030 h1         1 0D5       0.079700
    130 HB11       126.3360   237.4190   130.8090 hc         1 0D5       0.048700
    131 HB21       125.2800   238.5950   129.9980 hc         1 0D5       0.048700
    132 HB3        124.5760   237.3070   131.0020 hc         1 0D5       0.048700
    133 H1         125.1840   237.5290   126.6220 hn         1 0D5       0.356500
    134 HA1        127.9360   236.8000   125.8450 h1         1 0D5       0.082700
    135 HB22       125.7790   238.1700   124.1710 hc         1 0D5       0.072700
    136 HB31       127.2680   237.4710   123.5640 hc         1 0D5       0.072700
    137 HG         124.9930   235.8960   124.8860 hc         1 0D5       0.065700
    138 HD11       124.5100   235.0170   122.6300 hc         1 0D5       0.027867
    139 HD12       124.3460   236.7820   122.6680 hc         1 0D5       0.027867
    140 HD13       125.7860   236.0410   121.9340 hc         1 0D5       0.027867
    141 HD21       126.1900   233.8450   124.0890 hc         1 0D5       0.027867
    142 HD22       127.5670   234.8490   123.5860 hc         1 0D5       0.027867
    143 HD23       127.1230   234.7260   125.3050 hc         1 0D5       0.027867
    144 C16        126.8460   246.9330   126.2420 c2         1 0D5      -0.135200
@<TRIPOS>BOND
     1     1     2 1   
     2     1     3 1   
     3     1     4 1   
     4     4     5 1   
     5     4     6 1   
     6     4    71 1   
     7     5    65 1   
     8     5    72 1   
     9     6     7 1   
    10     6     9 1   
    11     6    73 1   
    12     7     8 2   
    13     7    10 1   
    14     9    74 1   
    15     9    75 1   
    16     9    76 1   
    17    10    11 1   
    18    10    77 1   
    19    11    12 1   
    20    11    14 1   
    21    11    78 1   
    22    12    13 2   
    23    12    38 1   
    24    14    15 1   
    25    14    79 1   
    26    14    80 1   
    27    15    16 1   
    28    15    81 1   
    29    15    82 1   
    30    16    17 1   
    31    16    83 1   
    32    16    84 1   
    33    17    18 2   
    34    17    85 1   
    35    18    19 1   
    36    18    20 1   
    37    19    86 1   
    38    19    87 1   
    39    20    88 1   
    40    20    89 1   
    41    21    22 1   
    42    21    90 1   
    43    21    91 1   
    44    21    92 1   
    45    22    23 1   
    46    23    24 1   
    47    23    31 1   
    48    23   112 1   
    49    24    25 1   
    50    24    93 1   
    51    24    94 1   
    52    25    26 ar  
    53    25    30 ar  
    54    26    27 ar  
    55    26    95 1   
    56    27    28 ar  
    57    27    96 1   
    58    28    29 ar  
    59    28    97 1   
    60    29    30 ar  
    61    29    98 1   
    62    30    99 1   
    63    31    32 1   
    64    31    33 1   
    65    31   100 1   
    66    32   101 1   
    67    32   102 1   
    68    32   103 1   
    69    33    34 2   
    70    33   104 1   
    71    34    35 1   
    72    34    36 1   
    73    35   105 1   
    74    35   106 1   
    75    35   107 1   
    76    36   108 1   
    77    36   144 2   
    78    37    38 1   
    79    37    39 1   
    80    37   110 1   
    81    37   144 1   
    82    38   111 1   
    83    39    40 1   
    84    39    41 1   
    85    39   113 1   
    86    40   114 1   
    87    40   115 1   
    88    40   116 1   
    89    41    42 2   
    90    41    48 1   
    91    43    44 1   
    92    43    49 2   
    93    43    52 1   
    94    44    45 1   
    95    44   117 1   
    96    44   118 1   
    97    45    46 1   
    98    45   119 1   
    99    45   120 1   
   100    46    47 1   
   101    46    48 1   
   102    46   121 1   
   103    47    50 1   
   104    47    51 1   
   105    48   122 1   
   106    52    53 1   
   107    52    54 1   
   108    53   123 1   
   109    53   124 1   
   110    53   125 1   
   111    54    55 2   
   112    54    56 1   
   113    55   126 1   
   114    55   127 1   
   115    56    57 2   
   116    56    58 1   
   117    58    59 1   
   118    58   128 1   
   119    59    60 1   
   120    59    61 1   
   121    59   129 1   
   122    60   130 1   
   123    60   131 1   
   124    60   132 1   
   125    61    62 2   
   126    61    63 1   
   127    63    64 1   
   128    63   133 1   
   129    64    65 1   
   130    64    67 1   
   131    64   134 1   
   132    65    66 2   
   133    67    68 1   
   134    67   135 1   
   135    67   136 1   
   136    68    69 1   
   137    68    70 1   
   138    68   137 1   
   139    69   138 1   
   140    69   139 1   
   141    69   140 1   
   142    70   141 1   
   143    70   142 1   
   144    70   143 1   
   145   109   144 1   
@<TRIPOS>SUBSTRUCTURE
     1 0D5         1 TEMP              0 ****  ****    0 ROOT
