@<TRIPOS>MOLECULE
0D6
   77    79     1     0     0
SMALL
No Charge or Current Charge


@<TRIPOS>ATOM
      1 N1          23.4630     0.5280     6.4700 n          1 0D6      -0.409800
      2 C1          23.0900     1.5590     5.5850 c          1 0D6       0.652100
      3 O1          23.8200     1.9380     4.6810 o          1 0D6      -0.646100
      4 C2          24.6930    -0.2770     6.1780 c6         1 0D6       0.063000
      5 C3          25.2010    -1.1800     7.3340 c6         1 0D6       0.136300
      6 N4          24.1030    -1.9390     7.9710 n7         1 0D6      -0.840400
      7 C5          23.0930    -1.0080     8.5220 c6         1 0D6       0.136300
      8 C6          22.4830    -0.0840     7.4300 c6         1 0D6       0.063000
      9 N           21.8520     2.1170     5.8000 ns         1 0D6      -0.488900
     10 CA          21.2420     3.1830     4.9740 c3         1 0D6       0.042700
     11 C           21.2590     4.5370     5.7430 c          1 0D6       0.586100
     12 O           21.4070     4.6260     6.9570 o          1 0D6      -0.596100
     13 CB          19.7920     2.8020     4.5550 c3         1 0D6      -0.082400
     14 CG          19.6570     1.8460     3.3350 c3         1 0D6      -0.059700
     15 CD1         20.2580     0.4410     3.5780 c3         1 0D6      -0.088600
     16 CD2         18.1790     1.7350     2.8940 c3         1 0D6      -0.088600
     17 C21         19.4380     7.2300     5.9060 c3         1 0D6      -0.073400
     18 C31         20.9030     7.0160     5.4450 c3         1 0D6       0.121700
     19 N2          21.0810     5.6500     4.9470 ns         1 0D6      -0.501900
     20 C4          21.3600     8.0500     4.3870 c3         1 0D6      -0.086400
     21 C51         22.8590     7.9510     4.0180 c3         1 0D6      -0.033100
     22 C7          23.2700     9.0210     3.0160 ca         1 0D6      -0.079300
     23 C8          23.1260     8.7900     1.6340 ca         1 0D6      -0.108000
     24 C9          23.5000     9.7790     0.7070 ca         1 0D6      -0.109000
     25 C14         24.0180    11.0050     1.1580 ca         1 0D6      -0.112000
     26 C10         24.1610    11.2420     2.5350 ca         1 0D6      -0.109000
     27 C13         23.7870    10.2530     3.4620 ca         1 0D6      -0.108000
     28 C12         14.2870     5.6310     1.7000 ca         1 0D6      -0.056000
     29 C22         14.4610     7.0050     1.9400 ca         1 0D6      -0.128000
     30 C32         15.1800     7.4410     3.0670 ca         1 0D6      -0.018000
     31 C41         15.7240     6.4980     3.9630 ca         1 0D6      -0.266500
     32 S1          16.6710     7.0420     5.4000 sy         1 0D6       1.041500
     33 O11         16.5350     6.0310     6.4580 o          1 0D6      -0.519500
     34 O2          16.3820     8.4590     5.6580 o          1 0D6      -0.519500
     35 C52         15.5520     5.1190     3.7190 ca         1 0D6      -0.018000
     36 C61         14.8340     4.6900     2.5890 ca         1 0D6      -0.128000
     37 H21         24.4800    -0.9130     5.3080 h1         1 0D6       0.048950
     38 H22         25.5100     0.3980     5.8860 h1         1 0D6       0.048950
     39 H31         25.9630    -1.8730     6.9460 h1         1 0D6       0.063200
     40 H32         25.6930    -0.5490     8.0900 h1         1 0D6       0.063200
     41 HN4         23.6520    -2.5250     7.2550 hn         1 0D6       0.403000
     42 H51         22.2860    -1.5750     9.0110 h1         1 0D6       0.063200
     43 H52         23.5620    -0.3820     9.2950 h1         1 0D6       0.063200
     44 H61         21.9220     0.7070     7.9460 h1         1 0D6       0.048950
     45 H62         21.7560    -0.6680     6.8460 h1         1 0D6       0.048950
     46 H           21.3350     1.7720     6.5960 hn         1 0D6       0.315500
     47 HA          21.8400     3.3340     4.0650 h1         1 0D6       0.075700
     48 HB2         19.2590     2.3830     5.4190 hc         1 0D6       0.053700
     49 HB3         19.2580     3.7250     4.2990 hc         1 0D6       0.053700
     50 HG          20.2060     2.2960     2.4980 hc         1 0D6       0.041700
     51 HD11        20.0400    -0.2240     2.7350 hc         1 0D6       0.035367
     52 HD12        21.3480     0.4890     3.6770 hc         1 0D6       0.035367
     53 HD13        19.8440    -0.0110     4.4870 hc         1 0D6       0.035367
     54 HD21        18.0860     1.1090     1.9980 hc         1 0D6       0.035367
     55 HD22        17.5660     1.2900     3.6880 hc         1 0D6       0.035367
     56 HD23        17.7670     2.7230     2.6560 hc         1 0D6       0.035367
     57 H11         18.4640     7.6660     3.9830 h1         1 0D6       0.091700
     58 H12         18.4970     5.9360     4.4050 h1         1 0D6       0.091700
     59 H211        19.3230     8.2570     6.2760 hc         1 0D6       0.073200
     60 H221        19.2520     6.5720     6.7640 hc         1 0D6       0.073200
     61 H3          21.5470     7.1460     6.3260 h1         1 0D6       0.082700
     62 HN2         20.9770     5.4880     3.9530 hn         1 0D6       0.310500
     63 H41         20.7620     7.9350     3.4750 hc         1 0D6       0.047700
     64 H42         21.1610     9.0590     4.7690 hc         1 0D6       0.047700
     65 H511        23.4610     8.0390     4.9320 hc         1 0D6       0.058700
     66 H521        23.0730     6.9560     3.6080 hc         1 0D6       0.058700
     67 H2          22.7240     7.8450     1.2770 ha         1 0D6       0.110000
     68 H7          23.3880     9.5950    -0.3590 ha         1 0D6       0.111000
     69 H4          24.3070    11.7710     0.4410 ha         1 0D6       0.112000
     70 H5          24.5610    12.1910     2.8850 ha         1 0D6       0.111000
     71 H6          23.8990    10.4450     4.5270 ha         1 0D6       0.110000
     72 H8          14.0410     7.7330     1.2500 ha         1 0D6       0.121000
     73 H33         15.3110     8.5090     3.2350 ha         1 0D6       0.136500
     74 H9          15.9730     4.3770     4.3970 ha         1 0D6       0.136500
     75 H10         14.7020     3.6260     2.4020 ha         1 0D6       0.121000
     76 C11         18.3750     6.9470     4.8050 c3         1 0D6      -0.296400
     77 H1          13.7320     5.2970     0.8260 ha         1 0D6       0.118000
@<TRIPOS>BOND
     1     1     2 1   
     2     1     4 1   
     3     1     8 1   
     4     2     3 2   
     5     2     9 1   
     6     4     5 1   
     7     4    37 1   
     8     4    38 1   
     9     5     6 1   
    10     5    39 1   
    11     5    40 1   
    12     6     7 1   
    13     6    41 1   
    14     7     8 1   
    15     7    42 1   
    16     7    43 1   
    17     8    44 1   
    18     8    45 1   
    19     9    10 1   
    20     9    46 1   
    21    10    11 1   
    22    10    13 1   
    23    10    47 1   
    24    11    12 2   
    25    11    19 1   
    26    13    14 1   
    27    13    48 1   
    28    13    49 1   
    29    14    15 1   
    30    14    16 1   
    31    14    50 1   
    32    15    51 1   
    33    15    52 1   
    34    15    53 1   
    35    16    54 1   
    36    16    55 1   
    37    16    56 1   
    38    17    18 1   
    39    17    59 1   
    40    17    60 1   
    41    17    76 1   
    42    18    19 1   
    43    18    20 1   
    44    18    61 1   
    45    19    62 1   
    46    20    21 1   
    47    20    63 1   
    48    20    64 1   
    49    21    22 1   
    50    21    65 1   
    51    21    66 1   
    52    22    23 ar  
    53    22    27 ar  
    54    23    24 ar  
    55    23    67 1   
    56    24    25 ar  
    57    24    68 1   
    58    25    26 ar  
    59    25    69 1   
    60    26    27 ar  
    61    26    70 1   
    62    27    71 1   
    63    28    29 ar  
    64    28    36 ar  
    65    28    77 1   
    66    29    30 ar  
    67    29    72 1   
    68    30    31 ar  
    69    30    73 1   
    70    31    32 1   
    71    31    35 ar  
    72    32    33 2   
    73    32    34 2   
    74    32    76 1   
    75    35    36 ar  
    76    35    74 1   
    77    36    75 1   
    78    57    76 1   
    79    58    76 1   
@<TRIPOS>SUBSTRUCTURE
     1 0D6         1 TEMP              0 ****  ****    0 ROOT
