@<TRIPOS>MOLECULE
0D6
   77    79     1     0     0
SMALL
abcg2


@<TRIPOS>ATOM
      1 N1          23.6140     0.9320     6.2810 n          1 0D6      -0.409800
      2 C1          22.9450     1.8820     5.5620 c          1 0D6       0.652100
      3 O1          23.5180     2.8230     5.0210 o          1 0D6      -0.646100
      4 C2          25.0680     0.9790     6.3060 c6         1 0D6       0.063000
      5 C3          25.5870     0.4730     7.6440 c6         1 0D6       0.136300
      6 N4          25.0880    -0.8410     8.0090 n7         1 0D6      -0.840400
      7 C5          23.6400    -0.8720     7.9330 c6         1 0D6       0.136300
      8 C6          23.0800    -0.3830     6.6010 c6         1 0D6       0.063000
      9 N           21.5920     1.7480     5.4600 ns         1 0D6      -0.488900
     10 CA          20.8310     2.7990     4.8390 c3         1 0D6       0.042700
     11 C           20.9670     4.1080     5.6200 c          1 0D6       0.586100
     12 O           21.0490     4.1250     6.8370 o          1 0D6      -0.596100
     13 CB          19.3420     2.4280     4.7640 c3         1 0D6      -0.082400
     14 CG          18.9430     1.5430     3.5810 c3         1 0D6      -0.059700
     15 CD1         19.6380     0.1850     3.5640 c3         1 0D6      -0.088600
     16 CD2         17.4280     1.3650     3.5750 c3         1 0D6      -0.088600
     17 C21         19.4210     6.9130     5.8470 c3         1 0D6      -0.073400
     18 C31         20.8460     6.5600     5.4020 c3         1 0D6       0.121700
     19 N2          20.9210     5.2180     4.8620 ns         1 0D6      -0.501900
     20 C4          21.4130     7.5580     4.3990 c3         1 0D6      -0.086400
     21 C51         22.9080     7.3700     4.1360 c3         1 0D6      -0.033100
     22 C7          23.4260     8.4090     3.1820 ca         1 0D6      -0.079300
     23 C8          23.4240     8.1810     1.8080 ca         1 0D6      -0.108000
     24 C9          23.8550     9.1590     0.9220 ca         1 0D6      -0.109000
     25 C14         24.2960    10.3870     1.3990 ca         1 0D6      -0.112000
     26 C10         24.3020    10.6260     2.7670 ca         1 0D6      -0.109000
     27 C13         23.8700     9.6450     3.6490 ca         1 0D6      -0.108000
     28 C12         14.2430     6.5720     1.5660 ca         1 0D6      -0.056000
     29 C22         14.6900     7.8410     1.9070 ca         1 0D6      -0.128000
     30 C32         15.4560     8.0270     3.0480 ca         1 0D6      -0.018000
     31 C41         15.7620     6.9260     3.8360 ca         1 0D6      -0.266500
     32 S1          16.7560     7.1510     5.2890 sy         1 0D6       1.041500
     33 O11         16.4050     6.1110     6.2540 o          1 0D6      -0.519500
     34 O2          16.6600     8.5480     5.7100 o          1 0D6      -0.519500
     35 C52         15.3220     5.6500     3.5080 ca         1 0D6      -0.018000
     36 C61         14.5590     5.4790     2.3630 ca         1 0D6      -0.128000
     37 H21         25.4780     0.3620     5.4940 h1         1 0D6       0.048950
     38 H22         25.4030     2.0000     6.1410 h1         1 0D6       0.048950
     39 H31         26.6780     0.4470     7.6170 h1         1 0D6       0.063200
     40 H32         25.3020     1.1810     8.4280 h1         1 0D6       0.063200
     41 HN4         25.4700    -1.5310     7.3720 hn         1 0D6       0.403000
     42 H51         23.2900    -1.8900     8.1120 h1         1 0D6       0.063200
     43 H52         23.2370    -0.2460     8.7350 h1         1 0D6       0.063200
     44 H61         21.9940    -0.3730     6.6690 h1         1 0D6       0.048950
     45 H62         23.3430    -1.0950     5.8070 h1         1 0D6       0.048950
     46 H           21.0960     1.1770     6.1230 hn         1 0D6       0.315500
     47 HA          21.1970     2.9520     3.8190 h1         1 0D6       0.075700
     48 HB2         19.0350     1.9580     5.7060 hc         1 0D6       0.053700
     49 HB3         18.7640     3.3530     4.6930 hc         1 0D6       0.053700
     50 HG          19.2240     2.0770     2.6660 hc         1 0D6       0.041700
     51 HD11        19.2640    -0.4210     2.7370 hc         1 0D6       0.035367
     52 HD12        20.7160     0.2750     3.4440 hc         1 0D6       0.035367
     53 HD13        19.4500    -0.3660     4.4890 hc         1 0D6       0.035367
     54 HD21        17.1030     0.7860     2.7090 hc         1 0D6       0.035367
     55 HD22        17.0940     0.8350     4.4710 hc         1 0D6       0.035367
     56 HD23        16.9090     2.3250     3.5460 hc         1 0D6       0.035367
     57 H11         18.6120     7.5970     3.9320 h1         1 0D6       0.091700
     58 H12         18.4070     5.8630     4.2300 h1         1 0D6       0.091700
     59 H211        19.4330     7.9150     6.2820 hc         1 0D6       0.073200
     60 H221        19.1240     6.2220     6.6370 hc         1 0D6       0.073200
     61 H3          21.4690     6.5900     6.3000 h1         1 0D6       0.082700
     62 HN2         20.8450     5.1090     3.8610 hn         1 0D6       0.310500
     63 H41         20.8690     7.4960     3.4500 hc         1 0D6       0.047700
     64 H42         21.2380     8.5650     4.7860 hc         1 0D6       0.047700
     65 H511        23.4490     7.4320     5.0850 hc         1 0D6       0.058700
     66 H521        23.0920     6.3710     3.7340 hc         1 0D6       0.058700
     67 H2          23.0830     7.2240     1.4280 ha         1 0D6       0.110000
     68 H7          23.8490     8.9620    -0.1430 ha         1 0D6       0.111000
     69 H4          24.6340    11.1500     0.7110 ha         1 0D6       0.112000
     70 H5          24.6470    11.5790     3.1490 ha         1 0D6       0.111000
     71 H6          23.8790     9.8390     4.7160 ha         1 0D6       0.110000
     72 H8          14.4410     8.6910     1.2850 ha         1 0D6       0.121000
     73 H33         15.8040     9.0160     3.3160 ha         1 0D6       0.136500
     74 H9          15.5650     4.7990     4.1310 ha         1 0D6       0.136500
     75 H10         14.2080     4.4910     2.0970 ha         1 0D6       0.121000
     76 C11         18.4210     6.8480     4.7020 c3         1 0D6      -0.296400
     77 H1          13.6440     6.4330     0.6760 ha         1 0D6       0.118000
@<TRIPOS>BOND
     1     1     2 1   
     2     1     4 1   
     3     1     8 1   
     4     2     3 2   
     5     2     9 1   
     6     4     5 1   
     7     4    37 1   
     8     4    38 1   
     9     5     6 1   
    10     5    39 1   
    11     5    40 1   
    12     6     7 1   
    13     6    41 1   
    14     7     8 1   
    15     7    42 1   
    16     7    43 1   
    17     8    44 1   
    18     8    45 1   
    19     9    10 1   
    20     9    46 1   
    21    10    11 1   
    22    10    13 1   
    23    10    47 1   
    24    11    12 2   
    25    11    19 1   
    26    13    14 1   
    27    13    48 1   
    28    13    49 1   
    29    14    15 1   
    30    14    16 1   
    31    14    50 1   
    32    15    51 1   
    33    15    52 1   
    34    15    53 1   
    35    16    54 1   
    36    16    55 1   
    37    16    56 1   
    38    17    18 1   
    39    17    59 1   
    40    17    60 1   
    41    17    76 1   
    42    18    19 1   
    43    18    20 1   
    44    18    61 1   
    45    19    62 1   
    46    20    21 1   
    47    20    63 1   
    48    20    64 1   
    49    21    22 1   
    50    21    65 1   
    51    21    66 1   
    52    22    23 ar  
    53    22    27 ar  
    54    23    24 ar  
    55    23    67 1   
    56    24    25 ar  
    57    24    68 1   
    58    25    26 ar  
    59    25    69 1   
    60    26    27 ar  
    61    26    70 1   
    62    27    71 1   
    63    28    29 ar  
    64    28    36 ar  
    65    28    77 1   
    66    29    30 ar  
    67    29    72 1   
    68    30    31 ar  
    69    30    73 1   
    70    31    32 1   
    71    31    35 ar  
    72    32    33 2   
    73    32    34 2   
    74    32    76 1   
    75    35    36 ar  
    76    35    74 1   
    77    36    75 1   
    78    57    76 1   
    79    58    76 1   
@<TRIPOS>SUBSTRUCTURE
     1 0D6         1 TEMP              0 ****  ****    0 ROOT
