@<TRIPOS>MOLECULE
0D8
   14    13     1     0     0
SMALL
bcc


@<TRIPOS>ATOM
      1 OH           2.3810    -0.3720    -0.0250 oh         1 0D8      -0.597800
      2 N3          -2.4570    -0.3860    -0.0530 n8         1 0D8      -0.882800
      3 CA3         -1.2700     0.4550     0.0290 c3         1 0D8       0.149800
      4 C7          -0.0050    -0.3890    -0.0320 c3         1 0D8      -0.085400
      5 C8           1.2450     0.4630     0.0560 c3         1 0D8       0.140400
      6 H3          -2.5220    -0.9470     0.7870 hn         1 0D8       0.337300
      7 HA21        -1.2820     1.1440    -0.8200 h1         1 0D8       0.024700
      8 HA3         -1.2400     1.0810     0.9320 h1         1 0D8       0.024700
      9 H14          1.2330     1.0300     0.9970 h1         1 0D8       0.013700
     10 H24          1.2360     1.2030    -0.7560 h1         1 0D8       0.013700
     11 H89         -0.0100    -1.1120     0.7910 hc         1 0D8       0.060200
     12 H99          0.0000    -0.9620    -0.9640 hc         1 0D8       0.060200
     13 H2           3.1640     0.1820     0.0320 ho         1 0D8       0.403000
     14 H1          -3.2830     0.1990    -0.0530 hn         1 0D8       0.337300
@<TRIPOS>BOND
     1     1     5 1   
     2     1    13 1   
     3     2     3 1   
     4     2     6 1   
     5     2    14 1   
     6     3     4 1   
     7     3     7 1   
     8     3     8 1   
     9     4     5 1   
    10     4    11 1   
    11     4    12 1   
    12     5     9 1   
    13     5    10 1   
@<TRIPOS>SUBSTRUCTURE
     1 0D8         1 TEMP              0 ****  ****    0 ROOT
