@<TRIPOS>MOLECULE
0D8
   14    13     1     0     0
SMALL
No Charge or Current Charge


@<TRIPOS>ATOM
      1 OH           2.4270    -0.3800    -0.0020 oh         1 0D8      -0.660000
      2 N3          -2.4990    -0.3750    -0.0710 n8         1 0D8      -0.993200
      3 CA3         -1.2880     0.4620     0.0130 c3         1 0D8       0.149800
      4 C7          -0.0050    -0.3900    -0.0340 c3         1 0D8      -0.085400
      5 C8           1.2740     0.4660     0.0450 c3         1 0D8       0.163600
      6 H3          -2.5490    -0.9760     0.7610 hn         1 0D8       0.392500
      7 HA21        -1.2920     1.1700    -0.8270 h1         1 0D8       0.024700
      8 HA3         -1.3190     1.0340     0.9510 h1         1 0D8       0.024700
      9 H14          1.2660     1.0450     0.9770 h1         1 0D8       0.013700
     10 H24          1.2880     1.1740    -0.7950 h1         1 0D8       0.013700
     11 H89         -0.0100    -1.1040     0.7990 hc         1 0D8       0.060200
     12 H99          0.0100    -0.9730    -0.9630 hc         1 0D8       0.060200
     13 H2           3.2140     0.2080     0.0490 ho         1 0D8       0.442000
     14 H1          -3.3280     0.2260     0.0180 hn         1 0D8       0.392500
@<TRIPOS>BOND
     1     1     5 1   
     2     1    13 1   
     3     2     3 1   
     4     2     6 1   
     5     2    14 1   
     6     3     4 1   
     7     3     7 1   
     8     3     8 1   
     9     4     5 1   
    10     4    11 1   
    11     4    12 1   
    12     5     9 1   
    13     5    10 1   
@<TRIPOS>SUBSTRUCTURE
     1 0D8         1 TEMP              0 ****  ****    0 ROOT
