@<TRIPOS>MOLECULE
0DB
   65    68     1     0     0
SMALL
bcc


@<TRIPOS>ATOM
      1 CA           1.8390    -1.4660    -1.3810 c3         1 0DB      -0.193700
      2 CB1          2.7310    -0.7820    -0.3490 c3         1 0DB      -0.043400
      3 CG           3.8360     0.0700    -0.9790 c3         1 0DB      -0.036100
      4 CD           4.6480     0.7950     0.0590 ca         1 0DB      -0.053300
      5 CE1          5.9660     0.4310     0.3260 ca         1 0DB      -0.125000
      6 CE2          4.0840     1.8300     0.8060 ca         1 0DB      -0.125000
      7 CZ1          6.7060     1.0830     1.3060 ca         1 0DB      -0.145000
      8 CZ2          4.8190     2.4850     1.7850 ca         1 0DB      -0.145000
      9 CH           6.1350     2.1140     2.0390 ca         1 0DB      -0.168000
     10 CB2          2.6680    -2.3750    -2.3140 c          1 0DB       0.925600
     11 OG1          3.3530    -3.2610    -1.7620 o          1 0DB      -0.854800
     12 OG2          2.5830    -2.1730    -3.5430 o          1 0DB      -0.854800
     13 CH2          0.7020    -2.3060    -0.7820 c3         1 0DB      -0.032400
     14 CA1         -0.2630    -1.6270     0.2160 c5         1 0DB      -0.122000
     15 CB11        -1.5090    -2.5460     0.4610 c5         1 0DB      -0.074400
     16 CB21         0.3660    -1.4980     1.6310 c5         1 0DB      -0.074400
     17 CG1         -1.4000    -3.0550     1.8980 c5         1 0DB      -0.082900
     18 CG2         -0.7210    -1.8990     2.6190 c5         1 0DB      -0.082900
     19 C           -0.7870    -0.3430    -0.4310 c          1 0DB       0.677100
     20 O           -1.2390    -0.3860    -1.5720 o          1 0DB      -0.647100
     21 N           -0.7530     0.7850     0.2890 ns         1 0DB      -0.538900
     22 CA2         -1.0700     2.0950    -0.2240 c3         1 0DB      -0.032300
     23 C1          -0.0680     3.1390     0.3230 c          1 0DB       0.924600
     24 O1           0.6750     2.7840     1.2600 o          1 0DB      -0.839800
     25 CB          -2.5050     2.5330     0.1300 c3         1 0DB      -0.008200
     26 CG3         -3.5400     1.5390    -0.2760 cc         1 0DB      -0.092400
     27 CD1         -4.1270     1.4160    -1.5020 cd         1 0DB      -0.112100
     28 CD2         -4.0430     0.4560     0.5110 ca         1 0DB      -0.081800
     29 NE1         -4.9530     0.3250    -1.5260 na         1 0DB      -0.178400
     30 CE21        -4.9240    -0.2860    -0.3080 ca         1 0DB      -0.048200
     31 CE3         -3.8380     0.0430     1.8320 ca         1 0DB      -0.057000
     32 CZ21        -5.5900    -1.4210     0.1550 ca         1 0DB      -0.162000
     33 CZ3         -4.4970    -1.0770     2.2970 ca         1 0DB      -0.186000
     34 CH21        -5.3620    -1.8060     1.4630 ca         1 0DB      -0.127000
     35 OXT         -0.1210     4.2630    -0.2100 o          1 0DB      -0.839800
     36 HA1          1.3840    -0.6820    -1.9940 hc         1 0DB       0.055700
     37 HB11         2.1260    -0.1250     0.2780 hc         1 0DB       0.028700
     38 HB12         3.1850    -1.5220     0.3160 hc         1 0DB       0.028700
     39 HG1          4.4970    -0.5550    -1.5820 hc         1 0DB       0.057700
     40 HG2          3.3780     0.7930    -1.6620 hc         1 0DB       0.057700
     41 HE1          6.4220    -0.3720    -0.2410 ha         1 0DB       0.155000
     42 HE2          3.0540     2.1230     0.6310 ha         1 0DB       0.155000
     43 HZ1          7.7290     0.7840     1.4950 ha         1 0DB       0.112500
     44 HZ2          4.3630     3.2870     2.3510 ha         1 0DB       0.112500
     45 HH           6.7090     2.6240     2.8020 ha         1 0DB       0.098000
     46 HH21         0.1110    -2.6860    -1.6190 hc         1 0DB       0.042200
     47 HH22         1.1240    -3.1840    -0.2840 hc         1 0DB       0.042200
     48 HB13        -2.4330    -1.9710     0.3680 hc         1 0DB       0.050700
     49 HB14        -1.5590    -3.3520    -0.2720 hc         1 0DB       0.050700
     50 HB21         1.1840    -2.2190     1.7080 hc         1 0DB       0.050700
     51 HB22         0.8190    -0.5320     1.8580 hc         1 0DB       0.050700
     52 HG11        -2.3740    -3.3160     2.3170 hc         1 0DB       0.026450
     53 HG12        -0.7670    -3.9450     1.9490 hc         1 0DB       0.026450
     54 HG21        -0.3240    -2.1650     3.6000 hc         1 0DB       0.026450
     55 HG22        -1.4350    -1.0830     2.7580 hc         1 0DB       0.026450
     56 H           -0.2650     0.8000     1.1700 hn         1 0DB       0.326500
     57 HA          -0.9900     2.0620    -1.3120 h1         1 0DB       0.066700
     58 HB2         -2.5680     2.7080     1.2090 hc         1 0DB       0.043200
     59 HB3         -2.6920     3.4950    -0.3490 hc         1 0DB       0.043200
     60 HD1         -4.0080     2.0290    -2.3830 h4         1 0DB       0.158000
     61 HE11        -5.5120     0.0430    -2.3120 hn         1 0DB       0.281700
     62 HE3         -3.1660     0.5910     2.4800 ha         1 0DB       0.139000
     63 HZ21        -6.2600    -1.9810    -0.4840 ha         1 0DB       0.111000
     64 HZ3         -4.3390    -1.4090     3.3160 ha         1 0DB       0.112000
     65 HH2         -5.8610    -2.6840     1.8530 ha         1 0DB       0.104000
@<TRIPOS>BOND
     1     1     2 1   
     2     1    10 1   
     3     1    13 1   
     4     1    36 1   
     5     2     3 1   
     6     2    37 1   
     7     2    38 1   
     8     3     4 1   
     9     3    39 1   
    10     3    40 1   
    11     4     5 ar  
    12     4     6 ar  
    13     5     7 ar  
    14     5    41 1   
    15     6     8 ar  
    16     6    42 1   
    17     7     9 ar  
    18     7    43 1   
    19     8     9 ar  
    20     8    44 1   
    21     9    45 1   
    22    10    11 1   
    23    10    12 1   
    24    13    14 1   
    25    13    46 1   
    26    13    47 1   
    27    14    15 1   
    28    14    16 1   
    29    14    19 1   
    30    15    17 1   
    31    15    48 1   
    32    15    49 1   
    33    16    18 1   
    34    16    50 1   
    35    16    51 1   
    36    17    18 1   
    37    17    52 1   
    38    17    53 1   
    39    18    54 1   
    40    18    55 1   
    41    19    20 2   
    42    19    21 1   
    43    21    22 1   
    44    21    56 1   
    45    22    23 1   
    46    22    25 1   
    47    22    57 1   
    48    23    24 1   
    49    23    35 1   
    50    25    26 1   
    51    25    58 1   
    52    25    59 1   
    53    26    27 2   
    54    26    28 1   
    55    27    29 1   
    56    27    60 1   
    57    28    30 ar  
    58    28    31 ar  
    59    29    30 1   
    60    29    61 1   
    61    30    32 ar  
    62    31    33 ar  
    63    31    62 1   
    64    32    34 ar  
    65    32    63 1   
    66    33    34 ar  
    67    33    64 1   
    68    34    65 1   
@<TRIPOS>SUBSTRUCTURE
     1 0DB         1 TEMP              0 ****  ****    0 ROOT
