@<TRIPOS>MOLECULE
0DB
   65    68     1     0     0
SMALL
No Charge or Current Charge


@<TRIPOS>ATOM
      1 CA           1.9500    -1.2290    -1.3740 c3         1 0DB      -0.193700
      2 CB1          3.0200    -0.7340    -0.3580 c3         1 0DB      -0.043400
      3 CG           4.1790     0.0720    -0.9890 c3         1 0DB      -0.036100
      4 CD           5.1250     0.6290     0.0670 ca         1 0DB      -0.053300
      5 CE1          6.2550    -0.1110     0.4710 ca         1 0DB      -0.107000
      6 CE2          4.8740     1.8840     0.6560 ca         1 0DB      -0.107000
      7 CZ1          7.1250     0.4010     1.4500 ca         1 0DB      -0.127000
      8 CZ2          5.7450     2.3950     1.6340 ca         1 0DB      -0.127000
      9 CH           6.8700     1.6540     2.0310 ca         1 0DB      -0.150000
     10 CB2          2.6030    -1.9930    -2.5530 c          1 0DB       0.715000
     11 OG1          3.1870    -3.0420    -2.3230 o          1 0DB      -0.749500
     12 OG2          2.5030    -1.5180    -3.6740 o          1 0DB      -0.749500
     13 CH2          0.8150    -2.1050    -0.7490 c3         1 0DB      -0.032400
     14 CA1         -0.2320    -1.4310     0.2050 c5         1 0DB      -0.122000
     15 CB11        -1.4090    -2.4260     0.5690 c5         1 0DB      -0.074400
     16 CB21         0.3810    -1.0890     1.6300 c5         1 0DB      -0.074400
     17 CG1         -1.2560    -2.7190     2.0840 c5         1 0DB      -0.082900
     18 CG2         -0.7840    -1.3500     2.6100 c5         1 0DB      -0.082900
     19 C           -0.9210    -0.2160    -0.5370 c          1 0DB       0.610100
     20 O           -1.3120    -0.2240    -1.6980 o          1 0DB      -0.647100
     21 N           -0.9680     0.9230     0.2430 ns         1 0DB      -0.471900
     22 CA2         -1.5400     2.2300    -0.1700 c3         1 0DB      -0.032300
     23 C1          -0.6750     3.4010     0.3850 c          1 0DB       0.714000
     24 O1          -0.3130     3.3580     1.5540 o          1 0DB      -0.734500
     25 CB          -3.0220     2.3970     0.2530 c3         1 0DB      -0.008200
     26 CG3         -3.9340     1.3080    -0.2540 cc         1 0DB      -0.092400
     27 CD1         -4.4340     1.1630    -1.5450 cd         1 0DB      -0.162100
     28 CD2         -4.4310     0.1810     0.4870 ca         1 0DB      -0.081800
     29 NE1         -5.2070    -0.0220    -1.6280 na         1 0DB      -0.228700
     30 CE21        -5.1710    -0.5870    -0.3680 ca         1 0DB      -0.048200
     31 CE3         -4.2620    -0.1690     1.8350 ca         1 0DB      -0.039000
     32 CZ21        -5.7820    -1.7750     0.0570 ca         1 0DB      -0.144000
     33 CZ3         -4.8650    -1.3610     2.2900 ca         1 0DB      -0.168000
     34 CH21        -5.6200    -2.1640     1.4030 ca         1 0DB      -0.109000
     35 OXT         -0.3140     4.2730    -0.3940 o          1 0DB      -0.734500
     36 HA1          1.4840    -0.3360    -1.8040 hc         1 0DB       0.055700
     37 HB11         2.5430    -0.0840     0.3800 hc         1 0DB       0.028700
     38 HB12         3.4340    -1.5900     0.1890 hc         1 0DB       0.028700
     39 HG1          4.7360    -0.5640    -1.6870 hc         1 0DB       0.057700
     40 HG2          3.7630     0.8920    -1.5870 hc         1 0DB       0.057700
     41 HE1          6.4560    -1.0840     0.0280 ha         1 0DB       0.137000
     42 HE2          4.0020     2.4620     0.3560 ha         1 0DB       0.137000
     43 HZ1          7.9950    -0.1740     1.7570 ha         1 0DB       0.094500
     44 HZ2          5.5460     3.3650     2.0850 ha         1 0DB       0.094500
     45 HH           7.5430     2.0500     2.7880 ha         1 0DB       0.080000
     46 HH21         0.2620    -2.5450    -1.5890 hc         1 0DB       0.042200
     47 HH22         1.2750    -2.9590    -0.2370 hc         1 0DB       0.042200
     48 HB13        -2.3920    -1.9780     0.3760 hc         1 0DB       0.050700
     49 HB14        -1.3840    -3.3500    -0.0190 hc         1 0DB       0.050700
     50 HB21         1.2130    -1.7630     1.8670 hc         1 0DB       0.050700
     51 HB22         0.7920    -0.0800     1.7340 hc         1 0DB       0.050700
     52 HG11        -2.1990    -3.0410     2.5420 hc         1 0DB       0.026450
     53 HG12        -0.5150    -3.5050     2.2720 hc         1 0DB       0.026450
     54 HG21        -0.4490    -1.3960     3.6530 hc         1 0DB       0.026450
     55 HG22        -1.5630    -0.5840     2.5460 hc         1 0DB       0.026450
     56 H           -0.5980     0.8450     1.1810 hn         1 0DB       0.326500
     57 HA          -1.4900     2.2940    -1.2640 h1         1 0DB       0.066700
     58 HB2         -3.0780     2.4480     1.3460 hc         1 0DB       0.043200
     59 HB3         -3.3830     3.3650    -0.1130 hc         1 0DB       0.043200
     60 HD1         -4.2770     1.8030    -2.4090 h4         1 0DB       0.208000
     61 HE11        -5.6820    -0.3870    -2.4480 hn         1 0DB       0.332000
     62 HE3         -3.6850     0.4560     2.5110 ha         1 0DB       0.121000
     63 HZ21        -6.3660    -2.3820    -0.6320 ha         1 0DB       0.093000
     64 HZ3         -4.7470    -1.6640     3.3280 ha         1 0DB       0.094000
     65 HH2         -6.0810    -3.0810     1.7610 ha         1 0DB       0.086000
@<TRIPOS>BOND
     1     1     2 1   
     2     1    10 1   
     3     1    13 1   
     4     1    36 1   
     5     2     3 1   
     6     2    37 1   
     7     2    38 1   
     8     3     4 1   
     9     3    39 1   
    10     3    40 1   
    11     4     5 ar  
    12     4     6 ar  
    13     5     7 ar  
    14     5    41 1   
    15     6     8 ar  
    16     6    42 1   
    17     7     9 ar  
    18     7    43 1   
    19     8     9 ar  
    20     8    44 1   
    21     9    45 1   
    22    10    11 1   
    23    10    12 1   
    24    13    14 1   
    25    13    46 1   
    26    13    47 1   
    27    14    15 1   
    28    14    16 1   
    29    14    19 1   
    30    15    17 1   
    31    15    48 1   
    32    15    49 1   
    33    16    18 1   
    34    16    50 1   
    35    16    51 1   
    36    17    18 1   
    37    17    52 1   
    38    17    53 1   
    39    18    54 1   
    40    18    55 1   
    41    19    20 2   
    42    19    21 1   
    43    21    22 1   
    44    21    56 1   
    45    22    23 1   
    46    22    25 1   
    47    22    57 1   
    48    23    24 1   
    49    23    35 1   
    50    25    26 1   
    51    25    58 1   
    52    25    59 1   
    53    26    27 2   
    54    26    28 1   
    55    27    29 1   
    56    27    60 1   
    57    28    30 ar  
    58    28    31 ar  
    59    29    30 1   
    60    29    61 1   
    61    30    32 ar  
    62    31    33 ar  
    63    31    62 1   
    64    32    34 ar  
    65    32    63 1   
    66    33    34 ar  
    67    33    64 1   
    68    34    65 1   
@<TRIPOS>SUBSTRUCTURE
     1 0DB         1 TEMP              0 ****  ****    0 ROOT
