@<TRIPOS>MOLECULE
0DF
   28    30     1     0     0
SMALL
abcg2


@<TRIPOS>ATOM
      1 O1          -4.8690    -0.3020     0.0250 o          1 0DF      -0.550000
      2 C3          -3.6830    -0.0460    -0.0340 c          1 0DF       0.601000
      3 N1          -2.6350    -0.9260     0.1380 n          1 0DF      -0.292000
      4 C7          -2.7770    -2.3310     0.4250 c3         1 0DF       0.104300
      5 C2          -1.4410    -0.2630    -0.0060 ca         1 0DF      -0.039400
      6 C6          -0.1280    -0.6520     0.0750 ca         1 0DF      -0.071000
      7 C5           0.8410     0.3460    -0.1250 cp         1 0DF      -0.083000
      8 C4           0.4170     1.6450    -0.3970 ca         1 0DF       0.344900
      9 N3          -0.8630     2.0260    -0.4720 nb         1 0DF      -0.664000
     10 C1          -1.7420     1.0800    -0.2760 ca         1 0DF       0.419900
     11 N2          -3.1080     1.1790    -0.2870 ns         1 0DF      -0.584900
     12 C8           2.2790     0.0250    -0.0610 cp         1 0DF      -0.033000
     13 C13          2.7650    -1.1770    -0.5790 ca         1 0DF      -0.099500
     14 C12          4.1170    -1.4790    -0.5220 ca         1 0DF      -0.108500
     15 C11          5.0110    -0.5840     0.0510 ca         1 0DF      -0.104000
     16 C10          4.5400     0.6150     0.5690 ca         1 0DF      -0.108500
     17 C9           3.1870     0.9150     0.5180 ca         1 0DF      -0.099500
     18 H1          -3.8300    -2.5620     0.5580 h1         1 0DF       0.052367
     19 H2          -2.3860    -2.9340    -0.3930 h1         1 0DF       0.052367
     20 H3          -2.2460    -2.5890     1.3410 h1         1 0DF       0.052367
     21 H4           0.1540    -1.6720     0.3050 ha         1 0DF       0.131000
     22 H5           1.1500     2.4210    -0.5830 h4         1 0DF       0.028100
     23 H6          -3.6390     2.0200    -0.4530 hn         1 0DF       0.480000
     24 H7           2.0840    -1.8770    -1.0480 ha         1 0DF       0.114000
     25 H8           4.4740    -2.4140    -0.9340 ha         1 0DF       0.114500
     26 H9           6.0670    -0.8200     0.0930 ha         1 0DF       0.115000
     27 H10          5.2260     1.3170     1.0260 ha         1 0DF       0.114500
     28 H11          2.8330     1.8420     0.9510 ha         1 0DF       0.114000
@<TRIPOS>BOND
     1     1     2 2   
     2     2     3 1   
     3     2    11 1   
     4     3     4 1   
     5     3     5 1   
     6     4    18 1   
     7     4    19 1   
     8     4    20 1   
     9     5     6 ar  
    10     5    10 ar  
    11     6     7 ar  
    12     6    21 1   
    13     7     8 ar  
    14     7    12 1   
    15     8     9 ar  
    16     8    22 1   
    17     9    10 ar  
    18    10    11 1   
    19    11    23 1   
    20    12    13 ar  
    21    12    17 ar  
    22    13    14 ar  
    23    13    24 1   
    24    14    15 ar  
    25    14    25 1   
    26    15    16 ar  
    27    15    26 1   
    28    16    17 ar  
    29    16    27 1   
    30    17    28 1   
@<TRIPOS>SUBSTRUCTURE
     1 0DF         1 TEMP              0 ****  ****    0 ROOT
