@<TRIPOS>MOLECULE
0DF
   28    30     1     0     0
SMALL
No Charge or Current Charge


@<TRIPOS>ATOM
      1 O1          -4.9200    -0.1670     0.3560 o          1 0DF      -0.550000
      2 C3          -3.7310     0.0050     0.1560 c          1 0DF       0.601000
      3 N1          -2.6850    -0.9390     0.1940 n          1 0DF      -0.292000
      4 C7          -2.9030    -2.3930     0.2640 c3         1 0DF       0.104300
      5 C2          -1.4590    -0.3160    -0.1900 ca         1 0DF      -0.039400
      6 C6          -0.1240    -0.6840    -0.0010 ca         1 0DF      -0.071000
      7 C5           0.8580     0.3350    -0.1920 cp         1 0DF      -0.083000
      8 C4           0.3950     1.6690    -0.4640 ca         1 0DF       0.344900
      9 N3          -0.9150     2.0350    -0.5220 nb         1 0DF      -0.664000
     10 C1          -1.7620     1.0160    -0.3860 ca         1 0DF       0.419900
     11 N2          -3.1120     1.1690    -0.1880 ns         1 0DF      -0.584900
     12 C8           2.3200     0.0280    -0.0730 cp         1 0DF      -0.033000
     13 C13          2.8330    -1.2390    -0.4530 ca         1 0DF      -0.099500
     14 C12          4.2040    -1.5300    -0.3430 ca         1 0DF      -0.108500
     15 C11          5.0920    -0.5610     0.1500 ca         1 0DF      -0.104000
     16 C10          4.6070     0.7000     0.5330 ca         1 0DF      -0.108500
     17 C9           3.2360     0.9910     0.4220 ca         1 0DF      -0.099500
     18 H1          -3.7450    -2.6140     0.9320 h1         1 0DF       0.052367
     19 H2          -3.1260    -2.7800    -0.7380 h1         1 0DF       0.052367
     20 H3          -2.0030    -2.8870     0.6500 h1         1 0DF       0.052367
     21 H4           0.1450    -1.6940     0.2950 ha         1 0DF       0.131000
     22 H5           1.1100     2.4770    -0.6090 h4         1 0DF       0.028100
     23 H6          -3.5920     2.0520    -0.2880 hn         1 0DF       0.480000
     24 H7           2.1670    -2.0000    -0.8500 ha         1 0DF       0.114000
     25 H8           4.5780    -2.5060    -0.6430 ha         1 0DF       0.114500
     26 H9           6.1530    -0.7860     0.2350 ha         1 0DF       0.115000
     27 H10          5.2930     1.4510     0.9180 ha         1 0DF       0.114500
     28 H11          2.8840     1.9700     0.7390 ha         1 0DF       0.114000
@<TRIPOS>BOND
     1     1     2 2   
     2     2     3 1   
     3     2    11 1   
     4     3     4 1   
     5     3     5 1   
     6     4    18 1   
     7     4    19 1   
     8     4    20 1   
     9     5     6 ar  
    10     5    10 ar  
    11     6     7 ar  
    12     6    21 1   
    13     7     8 ar  
    14     7    12 1   
    15     8     9 ar  
    16     8    22 1   
    17     9    10 ar  
    18    10    11 1   
    19    11    23 1   
    20    12    13 ar  
    21    12    17 ar  
    22    13    14 ar  
    23    13    24 1   
    24    14    15 ar  
    25    14    25 1   
    26    15    16 ar  
    27    15    26 1   
    28    16    17 ar  
    29    16    27 1   
    30    17    28 1   
@<TRIPOS>SUBSTRUCTURE
     1 0DF         1 TEMP              0 ****  ****    0 ROOT
