@<TRIPOS>MOLECULE
0DI
   48    50     1     0     0
SMALL
No Charge or Current Charge


@<TRIPOS>ATOM
      1 C1           2.2350     0.9680     0.7030 c6         1 0DI       0.077500
      2 F1           6.9410     0.4400     2.3660 f          1 0DI      -0.170000
      3 N1           2.1430    -0.4970     0.4930 n          1 0DI      -0.404800
      4 O1          -0.8130     3.1360    -1.3850 o          1 0DI      -0.592100
      5 Cl1         -6.1820    -2.8760     0.1060 cl         1 0DI      -0.199000
      6 C2           1.2920     1.7430    -0.2490 c6         1 0DI       0.076500
      7 F2           4.9370    -1.3190    -2.4540 f          1 0DI      -0.165000
      8 N2          -0.1110     1.2250    -0.3200 n          1 0DI      -0.416800
      9 O2           2.7860    -2.2460    -0.8450 o          1 0DI      -0.575100
     10 C3          -0.2250    -0.2700    -0.3040 c6         1 0DI       0.076500
     11 N3          -3.5350     2.2360    -1.9110 n8         1 0DI      -0.985200
     12 C4           0.7540    -0.9770     0.6620 c6         1 0DI       0.077500
     13 C5          -1.1050     2.0270    -0.9430 c          1 0DI       0.615100
     14 C6          -2.6010     1.5120    -0.9780 c3         1 0DI       0.098500
     15 C7          -3.2140     1.4810     0.4490 c3         1 0DI      -0.077100
     16 C8          -4.5980     0.8390     0.5020 ca         1 0DI      -0.080300
     17 C9          -4.7420    -0.5490     0.3050 ca         1 0DI      -0.103000
     18 C10         -6.0140    -1.1430     0.3550 ca         1 0DI       0.124000
     19 C11         -7.1510    -0.3580     0.6040 ca         1 0DI      -0.100000
     20 C12         -7.0150     1.0260     0.8050 ca         1 0DI      -0.096000
     21 C13         -5.7420     1.6220     0.7560 ca         1 0DI      -0.112000
     22 C14          3.1060    -1.2300    -0.2400 c          1 0DI       0.627700
     23 C15          4.5510    -0.8070    -0.1380 ca         1 0DI      -0.161600
     24 C16          5.4070    -0.9050    -1.2570 ca         1 0DI       0.186000
     25 C17          6.7600    -0.5350    -1.1580 ca         1 0DI      -0.127000
     26 C18          7.2800    -0.0760     0.0650 ca         1 0DI      -0.113000
     27 C19          6.4420     0.0100     1.1860 ca         1 0DI       0.154000
     28 C20          5.0890    -0.3550     1.0930 ca         1 0DI      -0.103000
     29 H1           1.9600     1.1930     1.7430 h1         1 0DI       0.065200
     30 H1A          3.2580     1.3370     0.5510 h1         1 0DI       0.065200
     31 H2           1.2810     2.7980     0.0620 h1         1 0DI       0.067200
     32 H2A          1.7200     1.7130    -1.2620 h1         1 0DI       0.067200
     33 H3          -1.2410    -0.5800    -0.0250 h1         1 0DI       0.067200
     34 H3A         -0.0410    -0.6410    -1.3220 h1         1 0DI       0.067200
     35 HN3         -4.4990     1.9620    -1.6860 hn         1 0DI       0.411000
     36 HN3A        -3.5100     3.2390    -1.6920 hn         1 0DI       0.411000
     37 H4           0.6960    -2.0660     0.5170 h1         1 0DI       0.065200
     38 H4A          0.4380    -0.7780     1.6960 h1         1 0DI       0.065200
     39 H6          -2.5600     0.4760    -1.3400 h1         1 0DI       0.073700
     40 H7          -2.5420     0.9370     1.1240 hc         1 0DI       0.060700
     41 H7A         -3.2500     2.5050     0.8420 hc         1 0DI       0.060700
     42 H9          -3.8700    -1.1690     0.1140 ha         1 0DI       0.125000
     43 H11         -8.1340    -0.8210     0.6420 ha         1 0DI       0.133000
     44 H12         -7.8940     1.6370     1.0000 ha         1 0DI       0.122000
     45 H13         -5.6480     2.6950     0.9150 ha         1 0DI       0.118000
     46 H17          7.4030    -0.6050    -2.0320 ha         1 0DI       0.142000
     47 H18          8.3270     0.2100     0.1460 ha         1 0DI       0.140000
     48 H20          4.4670    -0.3010     1.9830 ha         1 0DI       0.143000
@<TRIPOS>BOND
     1     1     3 1   
     2     1     6 1   
     3     1    29 1   
     4     1    30 1   
     5     2    27 1   
     6     3    12 1   
     7     3    22 1   
     8     4    13 2   
     9     5    18 1   
    10     6     8 1   
    11     6    31 1   
    12     6    32 1   
    13     7    24 1   
    14     8    10 1   
    15     8    13 1   
    16     9    22 2   
    17    10    12 1   
    18    10    33 1   
    19    10    34 1   
    20    11    14 1   
    21    11    35 1   
    22    11    36 1   
    23    12    37 1   
    24    12    38 1   
    25    13    14 1   
    26    14    15 1   
    27    14    39 1   
    28    15    16 1   
    29    15    40 1   
    30    15    41 1   
    31    16    17 ar  
    32    16    21 ar  
    33    17    18 ar  
    34    17    42 1   
    35    18    19 ar  
    36    19    20 ar  
    37    19    43 1   
    38    20    21 ar  
    39    20    44 1   
    40    21    45 1   
    41    22    23 1   
    42    23    24 ar  
    43    23    28 ar  
    44    24    25 ar  
    45    25    26 ar  
    46    25    46 1   
    47    26    27 ar  
    48    26    47 1   
    49    27    28 ar  
    50    28    48 1   
@<TRIPOS>SUBSTRUCTURE
     1 0DI         1 TEMP              0 ****  ****    0 ROOT
