@<TRIPOS>MOLECULE
0DI
   48    50     1     0     0
SMALL
bcc


@<TRIPOS>ATOM
      1 C1           2.0220     0.9820     0.1750 c6         1 0DI       0.077500
      2 F1           6.6070     0.3320     2.7560 f          1 0DI      -0.134900
      3 N1           1.8850    -0.4640     0.1790 n          1 0DI      -0.471800
      4 O1          -0.8640     3.2520    -1.0040 o          1 0DI      -0.592100
      5 CL1         -6.1050    -2.8340     0.3770 cl         1 0DI      -0.107400
      6 C2           1.3090     1.5680    -1.0350 c6         1 0DI       0.076500
      7 F2           4.5950    -0.9970    -2.0820 f          1 0DI      -0.129900
      8 N2          -0.0780     1.1410    -1.0610 n          1 0DI      -0.483800
      9 O2           2.7610    -2.5450    -0.0220 o          1 0DI      -0.575100
     10 C3          -0.2140    -0.3050    -1.0650 c6         1 0DI       0.076500
     11 N3          -3.3820     2.5320    -1.5680 n8         1 0DI      -0.874800
     12 C4           0.5040    -0.9100     0.1340 c6         1 0DI       0.077500
     13 C5          -1.0800     2.0490    -1.0290 c          1 0DI       0.682100
     14 C6          -2.5190     1.5410    -0.9680 c3         1 0DI       0.098500
     15 C7          -2.8400     1.2030     0.5090 c3         1 0DI      -0.077100
     16 C8          -4.2380     0.6860     0.6740 ca         1 0DI      -0.080300
     17 C9          -4.5020    -0.6690     0.4900 ca         1 0DI      -0.121000
     18 C10         -5.8000    -1.1410     0.6020 ca         1 0DI       0.032400
     19 C11         -6.8570    -0.2930     0.8940 ca         1 0DI      -0.118000
     20 C12         -6.5910     1.0560     1.0760 ca         1 0DI      -0.114000
     21 C13         -5.2960     1.5430     0.9660 ca         1 0DI      -0.130000
     22 C14          2.9020    -1.3390     0.1040 c          1 0DI       0.694700
     23 C15          4.2860    -0.7720     0.2270 ca         1 0DI      -0.161600
     24 C16          5.1050    -0.6750    -0.8830 ca         1 0DI       0.150900
     25 C17          6.4120    -0.2400    -0.7970 ca         1 0DI      -0.145000
     26 C18          6.9280     0.1020     0.4430 ca         1 0DI      -0.131000
     27 C19          6.1130     0.0010     1.5550 ca         1 0DI       0.118900
     28 C20          4.8030    -0.4280     1.4710 ca         1 0DI      -0.121000
     29 H1           1.5880     1.3870     1.0940 h1         1 0DI       0.065200
     30 H1A          3.0690     1.2720     0.1490 h1         1 0DI       0.065200
     31 H2           1.3630     2.6530    -1.0040 h1         1 0DI       0.067200
     32 H2A          1.8050     1.2300    -1.9510 h1         1 0DI       0.067200
     33 H3          -1.2560    -0.6110    -1.0420 h1         1 0DI       0.067200
     34 H3A          0.2170    -0.7020    -1.9890 h1         1 0DI       0.067200
     35 HN3         -4.3330     2.1860    -1.5810 hn         1 0DI       0.355800
     36 HN3A        -3.3880     3.3800    -1.0150 hn         1 0DI       0.355800
     37 H4           0.4660    -1.9950     0.0790 h1         1 0DI       0.065200
     38 H4A          0.0090    -0.6010     1.0600 h1         1 0DI       0.065200
     39 H6          -2.6270     0.6330    -1.5660 h1         1 0DI       0.073700
     40 H7          -2.1320     0.4630     0.8920 hc         1 0DI       0.060700
     41 H7A         -2.7010     2.1050     1.1110 hc         1 0DI       0.060700
     42 H9          -3.6940    -1.3560     0.2690 ha         1 0DI       0.143000
     43 H11         -7.8650    -0.6760     0.9830 ha         1 0DI       0.151000
     44 H12         -7.4050     1.7310     1.3070 ha         1 0DI       0.140000
     45 H13         -5.1060     2.5980     1.1190 ha         1 0DI       0.136000
     46 H17          7.0230    -0.1650    -1.6870 ha         1 0DI       0.160000
     47 H18          7.9490     0.4450     0.5380 ha         1 0DI       0.158000
     48 H20          4.1890    -0.4890     2.3600 ha         1 0DI       0.161000
@<TRIPOS>BOND
     1     1     3 1   
     2     1     6 1   
     3     1    29 1   
     4     1    30 1   
     5     2    27 1   
     6     3    12 1   
     7     3    22 1   
     8     4    13 2   
     9     5    18 1   
    10     6     8 1   
    11     6    31 1   
    12     6    32 1   
    13     7    24 1   
    14     8    10 1   
    15     8    13 1   
    16     9    22 2   
    17    10    12 1   
    18    10    33 1   
    19    10    34 1   
    20    11    14 1   
    21    11    35 1   
    22    11    36 1   
    23    12    37 1   
    24    12    38 1   
    25    13    14 1   
    26    14    15 1   
    27    14    39 1   
    28    15    16 1   
    29    15    40 1   
    30    15    41 1   
    31    16    17 ar  
    32    16    21 ar  
    33    17    18 ar  
    34    17    42 1   
    35    18    19 ar  
    36    19    20 ar  
    37    19    43 1   
    38    20    21 ar  
    39    20    44 1   
    40    21    45 1   
    41    22    23 1   
    42    23    24 ar  
    43    23    28 ar  
    44    24    25 ar  
    45    25    26 ar  
    46    25    46 1   
    47    26    27 ar  
    48    26    47 1   
    49    27    28 ar  
    50    28    48 1   
@<TRIPOS>SUBSTRUCTURE
     1 0DI         1 TEMP              0 ****  ****    0 ROOT
