@<TRIPOS>MOLECULE
0DJ
   32    34     1     0     0
SMALL
bcc


@<TRIPOS>ATOM
      1 C1          -0.3260     1.2890    -0.6460 ca         1 0DJ       0.415200
      2 C2          -0.0990    -0.0290    -0.2540 cp         1 0DJ      -0.153300
      3 C3          -1.2000    -0.8350     0.0800 ca         1 0DJ      -0.087000
      4 C4          -2.4380    -0.2500     0.0030 ca         1 0DJ      -0.104700
      5 C5          -2.5380     1.0910    -0.3980 ca         1 0DJ       0.487200
      6 N6          -1.5320     1.8600    -0.7210 nb         1 0DJ      -0.662000
      7 N7          -3.7130    -0.6930     0.2570 n          1 0DJ      -0.360000
      8 C8          -4.6180     0.3200     0.0170 c          1 0DJ       0.810500
      9 N9          -3.8700     1.4070    -0.3790 ns         1 0DJ      -0.538400
     10 C10         -4.0670    -2.0280     0.6700 c3         1 0DJ       0.104300
     11 O11         -5.8250     0.2640     0.1330 o          1 0DJ      -0.623500
     12 C12          1.2730    -0.5660    -0.2070 cp         1 0DJ      -0.038000
     13 C13          1.5450    -1.8690    -0.6270 ca         1 0DJ      -0.100000
     14 C14          2.8370    -2.3680    -0.5900 ca         1 0DJ      -0.137000
     15 C15          3.8830    -1.5710    -0.1480 ca         1 0DJ      -0.101000
     16 C16          3.6320    -0.2680     0.2720 ca         1 0DJ      -0.150600
     17 C17          2.3280     0.2160     0.2570 ca         1 0DJ      -0.067000
     18 C18          4.7070     0.6390     0.7880 c          1 0DJ       0.681700
     19 O19          4.4410     1.5690     1.5360 o          1 0DJ      -0.600100
     20 N20          5.9560     0.3660     0.3830 nt         1 0DJ      -0.668000
     21 H1           0.5090     1.9170    -0.9360 h4         1 0DJ       0.030100
     22 H2          -1.0690    -1.8610     0.4010 ha         1 0DJ       0.148000
     23 H3          -4.2690     2.3010    -0.6200 hn         1 0DJ       0.367500
     24 H4          -3.4780    -2.3220     1.5370 h1         1 0DJ       0.052700
     25 H5          -5.1180    -2.0500     0.9430 h1         1 0DJ       0.052700
     26 H6          -3.8980    -2.7440    -0.1350 h1         1 0DJ       0.052700
     27 H7           0.7440    -2.4960    -1.0000 ha         1 0DJ       0.134000
     28 H8           3.0330    -3.3820    -0.9120 ha         1 0DJ       0.136000
     29 H9           4.8820    -1.9880    -0.1150 ha         1 0DJ       0.131000
     30 H10          2.1330     1.2160     0.6220 ha         1 0DJ       0.158000
     31 H11          6.1530    -0.2920    -0.3510 hn         1 0DJ       0.314000
     32 H12          6.7110     0.9700     0.6640 hn         1 0DJ       0.314000
@<TRIPOS>BOND
     1     1     2 ar  
     2     1     6 ar  
     3     1    21 1   
     4     2     3 ar  
     5     2    12 1   
     6     3     4 ar  
     7     3    22 1   
     8     4     5 ar  
     9     4     7 1   
    10     5     6 ar  
    11     5     9 1   
    12     7     8 1   
    13     7    10 1   
    14     8     9 1   
    15     8    11 2   
    16     9    23 1   
    17    10    24 1   
    18    10    25 1   
    19    10    26 1   
    20    12    13 ar  
    21    12    17 ar  
    22    13    14 ar  
    23    13    27 1   
    24    14    15 ar  
    25    14    28 1   
    26    15    16 ar  
    27    15    29 1   
    28    16    17 ar  
    29    16    18 1   
    30    17    30 1   
    31    18    19 2   
    32    18    20 1   
    33    20    31 1   
    34    20    32 1   
@<TRIPOS>SUBSTRUCTURE
     1 0DJ         1 TEMP              0 ****  ****    0 ROOT
