@<TRIPOS>MOLECULE
0DJ
   32    34     1     0     0
SMALL
No Charge or Current Charge


@<TRIPOS>ATOM
      1 C1          -0.3900     1.3290    -0.7220 ca         1 0DJ       0.349900
      2 C2          -0.1120    -0.0320    -0.3520 cp         1 0DJ      -0.088000
      3 C3          -1.2180    -0.8700    -0.0170 ca         1 0DJ      -0.069000
      4 C4          -2.4940    -0.3210    -0.1720 ca         1 0DJ      -0.039400
      5 C5          -2.6100     1.0210    -0.4740 ca         1 0DJ       0.421900
      6 N6          -1.6340     1.8840    -0.7470 nb         1 0DJ      -0.662000
      7 N7          -3.7710    -0.7160     0.3320 n          1 0DJ      -0.293000
      8 C8          -4.6670     0.3690     0.2600 c          1 0DJ       0.601000
      9 N9          -3.9070     1.3930    -0.2220 ns         1 0DJ      -0.584900
     10 C10         -4.1950    -2.1090     0.5460 c3         1 0DJ       0.104300
     11 O11         -5.8530     0.3980     0.5350 o          1 0DJ      -0.548000
     12 C12          1.2930    -0.5480    -0.2800 cp         1 0DJ      -0.038000
     13 C13          1.5870    -1.8980    -0.5880 ca         1 0DJ      -0.082000
     14 C14          2.9020    -2.3830    -0.5230 ca         1 0DJ      -0.119000
     15 C15          3.9540    -1.5330    -0.1470 ca         1 0DJ      -0.083000
     16 C16          3.7000    -0.1780     0.1700 ca         1 0DJ      -0.150600
     17 C17          2.3690     0.2960     0.0980 ca         1 0DJ      -0.049000
     18 C18          4.8060     0.7700     0.5830 c          1 0DJ       0.614700
     19 O19          4.6030     1.9410     0.8580 o          1 0DJ      -0.600100
     20 N20          6.0680     0.2930     0.6480 nt         1 0DJ      -0.601000
     21 H1           0.4250     2.0050    -0.9790 h4         1 0DJ       0.030100
     22 H2          -1.0820    -1.8810     0.3560 ha         1 0DJ       0.130000
     23 H3          -4.2570     2.3270    -0.3790 hn         1 0DJ       0.481000
     24 H4          -3.3540    -2.7000     0.9300 h1         1 0DJ       0.052700
     25 H5          -5.0150    -2.1420     1.2750 h1         1 0DJ       0.052700
     26 H6          -4.5370    -2.5400    -0.4030 h1         1 0DJ       0.052700
     27 H7           0.7920    -2.5730    -0.8940 ha         1 0DJ       0.116000
     28 H8           3.1070    -3.4230    -0.7670 ha         1 0DJ       0.118000
     29 H9           4.9600    -1.9430    -0.1070 ha         1 0DJ       0.113000
     30 H10          2.1640     1.3330     0.3550 ha         1 0DJ       0.140000
     31 H11          6.2590    -0.6710     0.4260 hn         1 0DJ       0.314000
     32 H12          6.8140     0.9140     0.9220 hn         1 0DJ       0.314000
@<TRIPOS>BOND
     1     1     2 ar  
     2     1     6 ar  
     3     1    21 1   
     4     2     3 ar  
     5     2    12 1   
     6     3     4 ar  
     7     3    22 1   
     8     4     5 ar  
     9     4     7 1   
    10     5     6 ar  
    11     5     9 1   
    12     7     8 1   
    13     7    10 1   
    14     8     9 1   
    15     8    11 2   
    16     9    23 1   
    17    10    24 1   
    18    10    25 1   
    19    10    26 1   
    20    12    13 ar  
    21    12    17 ar  
    22    13    14 ar  
    23    13    27 1   
    24    14    15 ar  
    25    14    28 1   
    26    15    16 ar  
    27    15    29 1   
    28    16    17 ar  
    29    16    18 1   
    30    17    30 1   
    31    18    19 2   
    32    18    20 1   
    33    20    31 1   
    34    20    32 1   
@<TRIPOS>SUBSTRUCTURE
     1 0DJ         1 TEMP              0 ****  ****    0 ROOT
