@<TRIPOS>MOLECULE
0DN
   30    31     1     0     0
SMALL
No Charge or Current Charge


@<TRIPOS>ATOM
      1 O4           0.0150    -1.3210    -1.2430 o          1 0DN      -0.568000
      2 C6           0.9170    -0.7620    -0.6410 c          1 0DN       0.624000
      3 N2           2.2050    -1.1130    -0.8930 ns         1 0DN      -0.467500
      4 C7           3.3440    -0.5940    -0.3690 c          1 0DN       0.587200
      5 O3           4.4390    -1.0200    -0.7000 o          1 0DN      -0.524000
      6 C8           3.1200     0.5010     0.6000 cc         1 0DN      -0.257400
      7 C10          4.3600     1.1180     1.2050 c3         1 0DN      -0.020900
      8 C9           1.8340     0.8960     0.9020 cd         1 0DN      -0.005400
      9 N1           0.7370     0.2750     0.3050 n          1 0DN      -0.320000
     10 C4          -0.6270     0.7000     0.7240 c5         1 0DN       0.354700
     11 C3          -1.1890     1.6710    -0.3620 c5         1 0DN      -0.151400
     12 C2          -2.4280     0.9000    -0.8940 c5         1 0DN       0.141300
     13 O2          -3.4530     1.7880    -1.3520 oh         1 0DN      -0.711000
     14 O1          -1.5580    -0.3910     0.8430 os         1 0DN      -0.439000
     15 C1          -2.8310     0.1050     0.3810 c5         1 0DN       0.139300
     16 C5          -3.8230    -1.0560     0.1350 c3         1 0DN       0.184600
     17 F1          -4.1410    -1.7030     1.2860 f          1 0DN      -0.261000
     18 H1           2.3290    -1.8530    -1.5650 hn         1 0DN       0.343500
     19 H2           5.0040     1.5500     0.4290 hc         1 0DN       0.048367
     20 H3           4.1050     1.9200     1.9080 hc         1 0DN       0.048367
     21 H4           4.9450     0.3700     1.7530 hc         1 0DN       0.048367
     22 H5           1.5880     1.6890     1.6050 h4         1 0DN       0.205000
     23 H6          -0.5330     1.2130     1.6900 h2         1 0DN       0.066700
     24 H7          -1.4700     2.6240     0.1000 hc         1 0DN       0.073200
     25 H8          -0.4710     1.9000    -1.1580 hc         1 0DN       0.073200
     26 H9          -2.1360     0.2000    -1.6920 h1         1 0DN       0.072700
     27 H10         -3.1000     2.2560    -2.1460 ho         1 0DN       0.513000
     28 H11         -3.2530     0.7760     1.1420 h1         1 0DN       0.078700
     29 H12         -4.7460    -0.6600    -0.3070 h1         1 0DN       0.061700
     30 H13         -3.3820    -1.7770    -0.5650 h1         1 0DN       0.061700
@<TRIPOS>BOND
     1     1     2 2   
     2     2     3 1   
     3     2     9 1   
     4     3     4 1   
     5     3    18 1   
     6     4     5 2   
     7     4     6 1   
     8     6     7 1   
     9     6     8 2   
    10     7    19 1   
    11     7    20 1   
    12     7    21 1   
    13     8     9 1   
    14     8    22 1   
    15     9    10 1   
    16    10    11 1   
    17    10    14 1   
    18    10    23 1   
    19    11    12 1   
    20    11    24 1   
    21    11    25 1   
    22    12    13 1   
    23    12    15 1   
    24    12    26 1   
    25    13    27 1   
    26    14    15 1   
    27    15    16 1   
    28    15    28 1   
    29    16    17 1   
    30    16    29 1   
    31    16    30 1   
@<TRIPOS>SUBSTRUCTURE
     1 0DN         1 TEMP              0 ****  ****    0 ROOT
