@<TRIPOS>MOLECULE
0DN
   30    31     1     0     0
SMALL
bcc


@<TRIPOS>ATOM
      1 O4          -0.1470    -0.8190    -1.4760 o          1 0DN      -0.643500
      2 C6           0.8060    -0.4580    -0.8170 c          1 0DN       0.833500
      3 N2           2.0620    -0.9670    -1.0200 ns         1 0DN      -0.601500
      4 C7           3.2290    -0.6530    -0.3470 c          1 0DN       0.729700
      5 O3           4.2800    -1.1920    -0.6450 o          1 0DN      -0.599500
      6 C8           3.0660     0.3340     0.7010 cc         1 0DN      -0.257400
      7 C10          4.2600     0.7420     1.5000 c3         1 0DN      -0.020900
      8 C9           1.8370     0.8370     0.9050 cd         1 0DN       0.044600
      9 N1           0.7270     0.4870     0.1790 n          1 0DN      -0.387000
     10 C4          -0.5620     1.0910     0.5080 c5         1 0DN       0.331500
     11 C3          -1.2910     1.7890    -0.6430 c5         1 0DN      -0.151400
     12 C2          -2.5440     0.9490    -0.8910 c5         1 0DN       0.118100
     13 O2          -3.7140     1.6890    -1.1300 oh         1 0DN      -0.588800
     14 O1          -1.4190     0.1050     1.0140 os         1 0DN      -0.392600
     15 C1          -2.7040     0.1920     0.4300 c5         1 0DN       0.116100
     16 C5          -3.2720    -1.1850     0.2240 c3         1 0DN       0.165900
     17 F1          -3.5190    -1.8020     1.4480 f          1 0DN      -0.242300
     18 H1           2.1310    -1.6600    -1.7550 hn         1 0DN       0.343500
     19 H2           5.0130     1.2230     0.8730 hc         1 0DN       0.048367
     20 H3           3.9820     1.4430     2.2850 hc         1 0DN       0.048367
     21 H4           4.7350    -0.1180     1.9720 hc         1 0DN       0.048367
     22 H5           1.6630     1.5740     1.6770 h4         1 0DN       0.155000
     23 H6          -0.3300     1.8180     1.2900 h2         1 0DN       0.066700
     24 H7          -1.5930     2.7830    -0.3090 hc         1 0DN       0.073200
     25 H8          -0.6700     1.9140    -1.5280 hc         1 0DN       0.073200
     26 H9          -2.3650     0.2430    -1.7070 h1         1 0DN       0.072700
     27 H10         -3.6960     1.9940    -2.0420 ho         1 0DN       0.414000
     28 H11         -3.3710     0.7720     1.0840 h1         1 0DN       0.078700
     29 H12         -4.2150    -1.1140    -0.3200 h1         1 0DN       0.061700
     30 H13         -2.5760    -1.8090    -0.3400 h1         1 0DN       0.061700
@<TRIPOS>BOND
     1     1     2 2   
     2     2     3 1   
     3     2     9 1   
     4     3     4 1   
     5     3    18 1   
     6     4     5 2   
     7     4     6 1   
     8     6     7 1   
     9     6     8 2   
    10     7    19 1   
    11     7    20 1   
    12     7    21 1   
    13     8     9 1   
    14     8    22 1   
    15     9    10 1   
    16    10    11 1   
    17    10    14 1   
    18    10    23 1   
    19    11    12 1   
    20    11    24 1   
    21    11    25 1   
    22    12    13 1   
    23    12    15 1   
    24    12    26 1   
    25    13    27 1   
    26    14    15 1   
    27    15    16 1   
    28    15    28 1   
    29    16    17 1   
    30    16    29 1   
    31    16    30 1   
@<TRIPOS>SUBSTRUCTURE
     1 0DN         1 TEMP              0 ****  ****    0 ROOT
