@<TRIPOS>MOLECULE
0DO
   92    95     1     0     0
SMALL
bcc


@<TRIPOS>ATOM
      1 C1           3.4790     0.0320     0.3920 c          1 0DO       0.670100
      2 C2           4.6940    -0.7600     0.8480 c3         1 0DO       0.057400
      3 C8           6.8290    -0.1510     1.6230 ca         1 0DO       0.088100
      4 C9           7.5470     0.5990     0.6880 ca         1 0DO      -0.078300
      5 C3           8.9280     0.4320     0.6400 ca         1 0DO      -0.129500
      6 C4           9.5700    -0.4540     1.4920 ca         1 0DO      -0.125000
      7 C5           8.8340    -1.1820     2.4150 ca         1 0DO      -0.129500
      8 C6           7.4500    -1.0460     2.4940 ca         1 0DO      -0.078300
      9 CM2          6.8460     1.5580    -0.2270 c3         1 0DO      -0.046300
     10 CM6          6.6490    -1.8280     3.4940 c3         1 0DO      -0.046300
     11 O1           3.4300     1.2450     0.4490 o          1 0DO      -0.576100
     12 O3           5.4750     0.0290     1.7100 os         1 0DO      -0.313900
     13 N            2.5020    -0.7490    -0.1100 ns         1 0DO      -0.568900
     14 CA           1.3930    -0.2470    -0.8870 c3         1 0DO       0.079700
     15 C            0.0690    -0.7780    -0.3230 c3         1 0DO       0.130100
     16 OXT          0.0180    -2.1880    -0.3080 oh         1 0DO      -0.579800
     17 CB           1.6030    -0.5610    -2.3780 c3         1 0DO      -0.055100
     18 CG           2.9180    -0.0320    -2.8740 ca         1 0DO      -0.082300
     19 CD1          4.0340    -0.8600    -2.9660 ca         1 0DO      -0.122500
     20 CD2          3.0620     1.3140    -3.2020 ca         1 0DO      -0.122500
     21 CE1          5.2620    -0.3580    -3.3770 ca         1 0DO      -0.124500
     22 CE2          4.2860     1.8200    -3.6150 ca         1 0DO      -0.124500
     23 CZ           5.3920     0.9850    -3.7030 ca         1 0DO      -0.125000
     24 CM          -1.1330    -0.1570    -1.0260 c3         1 0DO       0.144800
     25 N1          -2.3730    -0.3650    -0.2840 n3         1 0DO      -0.710600
     26 C21         -3.0070     0.8760     0.1240 c6         1 0DO       0.117500
     27 C10         -4.2520     0.6130     0.9730 c6         1 0DO      -0.054400
     28 C11         -5.2070    -0.2860     0.2020 c6         1 0DO      -0.159900
     29 C12         -4.5130    -1.5860    -0.1690 c6         1 0DO      -0.056400
     30 C13         -3.2780    -1.2560    -0.9900 c6         1 0DO       0.188800
     31 C7          -2.0330     1.6940     0.9820 c          1 0DO       0.661100
     32 O           -1.5860     1.2390     2.0250 o          1 0DO      -0.577100
     33 N11         -9.4170    -2.9040    -1.5680 nb         1 0DO      -0.631000
     34 C22         -8.7370    -3.5190    -0.6100 ca         1 0DO       0.391200
     35 C31         -7.8820    -2.8620     0.2650 ca         1 0DO      -0.158800
     36 C41         -7.7500    -1.4940     0.1120 ca         1 0DO      -0.217500
     37 C51         -8.4570    -0.8280    -0.8750 ca         1 0DO      -0.158800
     38 C61         -9.2770    -1.5910    -1.6940 ca         1 0DO       0.391200
     39 S           -6.6820    -0.5650     1.1970 sy         1 0DO       1.063300
     40 O1S         -6.3400    -1.4160     2.3340 o          1 0DO      -0.579800
     41 O2S         -7.3220     0.7250     1.4480 o          1 0DO      -0.579800
     42 N2          -1.7500     2.9070     0.4950 ns         1 0DO      -0.576900
     43 C1'1        -0.8570     3.9110     1.0890 c3         1 0DO       0.137400
     44 C2'1         0.5630     3.3610     1.2270 c3         1 0DO      -0.103767
     45 C3'1        -0.8480     5.0910     0.1190 c3         1 0DO      -0.103767
     46 C4'1        -1.3910     4.3730     2.4460 c3         1 0DO      -0.103767
     47 H21          4.3850    -1.6910     1.3380 h1         1 0DO       0.048200
     48 H22          5.2480    -1.0480    -0.0550 h1         1 0DO       0.048200
     49 H3           9.5060     1.0050    -0.0760 ha         1 0DO       0.130500
     50 H4          10.6450    -0.5710     1.4420 ha         1 0DO       0.132000
     51 H5           9.3380    -1.8700     3.0840 ha         1 0DO       0.130500
     52 HM21         6.2160     2.2580     0.3220 hc         1 0DO       0.047367
     53 HM22         7.5660     2.1310    -0.8090 hc         1 0DO       0.047367
     54 HM23         6.1920     1.0460    -0.9350 hc         1 0DO       0.047367
     55 HM61         5.9710    -2.5340     3.0100 hc         1 0DO       0.047367
     56 HM62         7.3040    -2.4030     4.1470 hc         1 0DO       0.047367
     57 HM63         6.0390    -1.1790     4.1210 hc         1 0DO       0.047367
     58 H            2.6340    -1.7490    -0.0960 hn         1 0DO       0.316500
     59 HA           1.3840     0.8380    -0.7600 h1         1 0DO       0.088700
     60 HC           0.0300    -0.4760     0.7260 h1         1 0DO       0.120700
     61 HOR         -0.0680    -2.5130    -1.2100 ho         1 0DO       0.387000
     62 HB2          1.5610    -1.6420    -2.5400 hc         1 0DO       0.047200
     63 HB3          0.7850    -0.1220    -2.9550 hc         1 0DO       0.047200
     64 HD1          3.9400    -1.9110    -2.7210 ha         1 0DO       0.125500
     65 HD2          2.2040     1.9750    -3.1380 ha         1 0DO       0.125500
     66 HE1          6.1170    -1.0190    -3.4420 ha         1 0DO       0.132000
     67 HE2          4.3770     2.8690    -3.8680 ha         1 0DO       0.132000
     68 HZ           6.3480     1.3780    -4.0220 ha         1 0DO       0.132000
     69 HM2         -0.9400     0.9110    -1.1690 h1         1 0DO       0.035700
     70 HM3         -1.2330    -0.5570    -2.0420 h1         1 0DO       0.035700
     71 H2          -3.3180     1.4730    -0.7520 h1         1 0DO       0.017700
     72 H31         -3.9550     0.1280     1.9050 hc         1 0DO       0.084200
     73 H32         -4.7180     1.5680     1.2170 hc         1 0DO       0.084200
     74 H42         -5.5650     0.2270    -0.6970 h1         1 0DO       0.088700
     75 H51         -4.2210    -2.1260     0.7340 hc         1 0DO       0.068200
     76 H52         -5.1630    -2.2350    -0.7570 hc         1 0DO       0.068200
     77 H61         -3.5940    -0.8360    -1.9600 h1         1 0DO       0.032700
     78 H62         -2.7480    -2.1830    -1.2070 h1         1 0DO       0.032700
     79 H23         -8.8730    -4.5910    -0.5250 h4         1 0DO       0.027100
     80 H1          -7.3520    -3.4120     1.0300 ha         1 0DO       0.164500
     81 H7          -8.3870     0.2410    -1.0170 ha         1 0DO       0.164500
     82 H6          -9.8450    -1.1120    -2.4830 h4         1 0DO       0.027100
     83 HN          -2.1890     3.1590    -0.3770 hn         1 0DO       0.304500
     84 H2'1         0.9530     3.0310     0.2630 hc         1 0DO       0.046144
     85 H2'2         1.2240     4.1430     1.6030 hc         1 0DO       0.046144
     86 H2'3         0.6120     2.5200     1.9150 hc         1 0DO       0.046144
     87 H3'1        -1.8500     5.5030    -0.0150 hc         1 0DO       0.046144
     88 H3'2        -0.2090     5.8860     0.5010 hc         1 0DO       0.046144
     89 H3'3        -0.4660     4.7950    -0.8600 hc         1 0DO       0.046144
     90 H4'1        -1.3840     3.5680     3.1780 hc         1 0DO       0.046144
     91 H4'2        -0.7690     5.1820     2.8300 hc         1 0DO       0.046144
     92 H4'3        -2.4120     4.7480     2.3550 hc         1 0DO       0.046144
@<TRIPOS>BOND
     1     1     2 1   
     2     1    11 2   
     3     1    13 1   
     4     2    12 1   
     5     2    47 1   
     6     2    48 1   
     7     3     4 ar  
     8     3     8 ar  
     9     3    12 1   
    10     4     5 ar  
    11     4     9 1   
    12     5     6 ar  
    13     5    49 1   
    14     6     7 ar  
    15     6    50 1   
    16     7     8 ar  
    17     7    51 1   
    18     8    10 1   
    19     9    52 1   
    20     9    53 1   
    21     9    54 1   
    22    10    55 1   
    23    10    56 1   
    24    10    57 1   
    25    13    14 1   
    26    13    58 1   
    27    14    15 1   
    28    14    17 1   
    29    14    59 1   
    30    15    16 1   
    31    15    24 1   
    32    15    60 1   
    33    16    61 1   
    34    17    18 1   
    35    17    62 1   
    36    17    63 1   
    37    18    19 ar  
    38    18    20 ar  
    39    19    21 ar  
    40    19    64 1   
    41    20    22 ar  
    42    20    65 1   
    43    21    23 ar  
    44    21    66 1   
    45    22    23 ar  
    46    22    67 1   
    47    23    68 1   
    48    24    25 1   
    49    24    69 1   
    50    24    70 1   
    51    25    26 1   
    52    25    30 1   
    53    26    27 1   
    54    26    31 1   
    55    26    71 1   
    56    27    28 1   
    57    27    72 1   
    58    27    73 1   
    59    28    29 1   
    60    28    39 1   
    61    28    74 1   
    62    29    30 1   
    63    29    75 1   
    64    29    76 1   
    65    30    77 1   
    66    30    78 1   
    67    31    32 2   
    68    31    42 1   
    69    33    34 ar  
    70    33    38 ar  
    71    34    35 ar  
    72    34    79 1   
    73    35    36 ar  
    74    35    80 1   
    75    36    37 ar  
    76    36    39 1   
    77    37    38 ar  
    78    37    81 1   
    79    38    82 1   
    80    39    40 2   
    81    39    41 2   
    82    42    43 1   
    83    42    83 1   
    84    43    44 1   
    85    43    45 1   
    86    43    46 1   
    87    44    84 1   
    88    44    85 1   
    89    44    86 1   
    90    45    87 1   
    91    45    88 1   
    92    45    89 1   
    93    46    90 1   
    94    46    91 1   
    95    46    92 1   
@<TRIPOS>SUBSTRUCTURE
     1 0DO         1 TEMP              0 ****  ****    0 ROOT
