@<TRIPOS>MOLECULE
0DO
   92    95     1     0     0
SMALL
No Charge or Current Charge


@<TRIPOS>ATOM
      1 C1           3.7340     0.8220    -0.4640 c          1 0DO       0.603100
      2 C2           4.7880     0.4980     0.6200 c3         1 0DO       0.080600
      3 C8           7.0870     0.9760     1.2460 ca         1 0DO       0.088100
      4 C9           7.9500    -0.0810     0.8670 ca         1 0DO      -0.078300
      5 C3           9.0610    -0.3830     1.6770 ca         1 0DO      -0.111500
      6 C4           9.3160     0.3590     2.8410 ca         1 0DO      -0.107000
      7 C5           8.4640     1.4140     3.2060 ca         1 0DO      -0.111500
      8 C6           7.3460     1.7330     2.4110 ca         1 0DO      -0.078300
      9 CM2          7.7060    -0.8950    -0.4010 c3         1 0DO      -0.046300
     10 CM6          6.4270     2.8800     2.8170 c3         1 0DO      -0.046300
     11 O1           3.8660     1.7060    -1.3020 o          1 0DO      -0.576100
     12 O3           5.9920     1.2820     0.4730 os         1 0DO      -0.337100
     13 N            2.6160     0.0120    -0.4240 ns         1 0DO      -0.501900
     14 CA           1.5520    -0.0170    -1.4400 c3         1 0DO       0.079700
     15 C            0.1630     0.1750    -0.7610 c3         1 0DO       0.153300
     16 OXT         -0.1470    -0.9120     0.1260 oh         1 0DO      -0.642000
     17 CB           1.6950    -1.2940    -2.3170 c3         1 0DO      -0.055100
     18 CG           3.1240    -1.5190    -2.8050 ca         1 0DO      -0.082300
     19 CD1          3.9380    -2.5010    -2.2040 ca         1 0DO      -0.104500
     20 CD2          3.6530    -0.7250    -3.8420 ca         1 0DO      -0.104500
     21 CE1          5.2640    -2.6830    -2.6320 ca         1 0DO      -0.106500
     22 CE2          4.9790    -0.9080    -4.2700 ca         1 0DO      -0.106500
     23 CZ           5.7860    -1.8860    -3.6640 ca         1 0DO      -0.107000
     24 CM          -1.0390     0.3300    -1.7370 c3         1 0DO       0.144800
     25 N1          -2.3600     0.0930    -1.0750 n3         1 0DO      -0.710600
     26 C21         -2.9780     1.3070    -0.3970 c6         1 0DO       0.117500
     27 C10         -4.2070     0.8240     0.4360 c6         1 0DO      -0.054400
     28 C11         -5.2680     0.1410    -0.4730 c6         1 0DO      -0.270700
     29 C12         -4.6050    -1.0260    -1.2580 c6         1 0DO      -0.056400
     30 C13         -3.3370    -0.5500    -2.0010 c6         1 0DO       0.188800
     31 C7          -2.0140     2.2350     0.4380 c          1 0DO       0.594100
     32 O           -1.2790     3.0450    -0.1150 o          1 0DO      -0.577100
     33 N11         -9.5250    -2.1910    -2.7750 nb         1 0DO      -0.631000
     34 C22         -8.7550    -2.9900    -1.9970 ca         1 0DO       0.325900
     35 C31         -7.8980    -2.4940    -0.9970 ca         1 0DO      -0.075500
     36 C41         -7.8250    -1.1010    -0.7790 ca         1 0DO      -0.217500
     37 C51         -8.6260    -0.2690    -1.5910 ca         1 0DO      -0.075500
     38 C61         -9.4550    -0.8540    -2.5680 ca         1 0DO       0.325900
     39 S           -6.7370    -0.3990     0.4820 sy         1 0DO       1.032500
     40 O1S         -6.3110    -1.4770     1.3850 o          1 0DO      -0.509000
     41 O2S         -7.3720     0.8170     1.0060 o          1 0DO      -0.509000
     42 N2          -2.0240     2.0680     1.8170 ns         1 0DO      -0.509900
     43 C1'1        -1.1870     2.7570     2.8070 c3         1 0DO       0.137400
     44 C2'1        -1.4620     4.2820     2.7860 c3         1 0DO      -0.103767
     45 C3'1        -1.5750     2.1930     4.1930 c3         1 0DO      -0.103767
     46 C4'1         0.3140     2.4690     2.5470 c3         1 0DO      -0.103767
     47 H21          4.3310     0.6730     1.6020 h1         1 0DO       0.048200
     48 H22          5.0120    -0.5730     0.5440 h1         1 0DO       0.048200
     49 H3           9.7320    -1.1950     1.4030 ha         1 0DO       0.112500
     50 H4          10.1780     0.1190     3.4600 ha         1 0DO       0.114000
     51 H5           8.6750     1.9840     4.1090 ha         1 0DO       0.112500
     52 HM21         7.3010    -0.2750    -1.2100 hc         1 0DO       0.047367
     53 HM22         8.6340    -1.3440    -0.7740 hc         1 0DO       0.047367
     54 HM23         6.9970    -1.7090    -0.2140 hc         1 0DO       0.047367
     55 HM61         5.4370     2.5060     3.1040 hc         1 0DO       0.047367
     56 HM62         6.8280     3.4410     3.6690 hc         1 0DO       0.047367
     57 HM63         6.2930     3.5880     1.9920 hc         1 0DO       0.047367
     58 H            2.5760    -0.6800     0.3150 hn         1 0DO       0.316500
     59 HA           1.6950     0.8440    -2.1070 h1         1 0DO       0.088700
     60 HC           0.2410     1.1010    -0.1800 h1         1 0DO       0.120700
     61 HOR         -1.1300    -0.9750     0.0460 ho         1 0DO       0.426000
     62 HB2          1.3570    -2.1670    -1.7450 hc         1 0DO       0.047200
     63 HB3          1.0260    -1.2220    -3.1820 hc         1 0DO       0.047200
     64 HD1          3.5450    -3.1170    -1.3980 ha         1 0DO       0.107500
     65 HD2          3.0380     0.0400    -4.3100 ha         1 0DO       0.107500
     66 HE1          5.8870    -3.4400    -2.1610 ha         1 0DO       0.114000
     67 HE2          5.3830    -0.2890    -5.0680 ha         1 0DO       0.114000
     68 HZ           6.8130    -2.0260    -3.9940 ha         1 0DO       0.114000
     69 HM2         -1.0100     1.3180    -2.2140 h1         1 0DO       0.035700
     70 HM3         -0.9080    -0.4040    -2.5400 h1         1 0DO       0.035700
     71 H2          -3.3660     1.9740    -1.1810 h1         1 0DO       0.017700
     72 H31         -3.8780     0.1220     1.2150 hc         1 0DO       0.084200
     73 H32         -4.6620     1.6840     0.9500 hc         1 0DO       0.084200
     74 H42         -5.6600     0.8770    -1.1870 h1         1 0DO       0.088700
     75 H51         -4.3290    -1.8390    -0.5710 hc         1 0DO       0.068200
     76 H52         -5.3070    -1.4540    -1.9860 hc         1 0DO       0.068200
     77 H61         -3.6250     0.1540    -2.7960 h1         1 0DO       0.032700
     78 H62         -2.8810    -1.4220    -2.4920 h1         1 0DO       0.032700
     79 H23         -8.8270    -4.0610    -2.1830 h4         1 0DO       0.027100
     80 H1          -7.3050    -3.1920    -0.4100 ha         1 0DO       0.146500
     81 H7          -8.6160     0.8120    -1.4770 ha         1 0DO       0.146500
     82 H6         -10.0820    -0.2310    -3.2050 h4         1 0DO       0.027100
     83 HN          -2.6470     1.3520     2.1660 hn         1 0DO       0.304500
     84 H2'1        -2.5300     4.4870     2.9210 hc         1 0DO       0.046144
     85 H2'2        -0.9160     4.7840     3.5940 hc         1 0DO       0.046144
     86 H2'3        -1.1450     4.7390     1.8420 hc         1 0DO       0.046144
     87 H3'1        -1.3970     1.1120     4.2400 hc         1 0DO       0.046144
     88 H3'2        -0.9860     2.6670     4.9880 hc         1 0DO       0.046144
     89 H3'3        -2.6360     2.3730     4.4070 hc         1 0DO       0.046144
     90 H4'1         0.6550     2.9120     1.6050 hc         1 0DO       0.046144
     91 H4'2         0.9330     2.8880     3.3490 hc         1 0DO       0.046144
     92 H4'3         0.5020     1.3890     2.5030 hc         1 0DO       0.046144
@<TRIPOS>BOND
     1     1     2 1   
     2     1    11 2   
     3     1    13 1   
     4     2    12 1   
     5     2    47 1   
     6     2    48 1   
     7     3     4 ar  
     8     3     8 ar  
     9     3    12 1   
    10     4     5 ar  
    11     4     9 1   
    12     5     6 ar  
    13     5    49 1   
    14     6     7 ar  
    15     6    50 1   
    16     7     8 ar  
    17     7    51 1   
    18     8    10 1   
    19     9    52 1   
    20     9    53 1   
    21     9    54 1   
    22    10    55 1   
    23    10    56 1   
    24    10    57 1   
    25    13    14 1   
    26    13    58 1   
    27    14    15 1   
    28    14    17 1   
    29    14    59 1   
    30    15    16 1   
    31    15    24 1   
    32    15    60 1   
    33    16    61 1   
    34    17    18 1   
    35    17    62 1   
    36    17    63 1   
    37    18    19 ar  
    38    18    20 ar  
    39    19    21 ar  
    40    19    64 1   
    41    20    22 ar  
    42    20    65 1   
    43    21    23 ar  
    44    21    66 1   
    45    22    23 ar  
    46    22    67 1   
    47    23    68 1   
    48    24    25 1   
    49    24    69 1   
    50    24    70 1   
    51    25    26 1   
    52    25    30 1   
    53    26    27 1   
    54    26    31 1   
    55    26    71 1   
    56    27    28 1   
    57    27    72 1   
    58    27    73 1   
    59    28    29 1   
    60    28    39 1   
    61    28    74 1   
    62    29    30 1   
    63    29    75 1   
    64    29    76 1   
    65    30    77 1   
    66    30    78 1   
    67    31    32 2   
    68    31    42 1   
    69    33    34 ar  
    70    33    38 ar  
    71    34    35 ar  
    72    34    79 1   
    73    35    36 ar  
    74    35    80 1   
    75    36    37 ar  
    76    36    39 1   
    77    37    38 ar  
    78    37    81 1   
    79    38    82 1   
    80    39    40 2   
    81    39    41 2   
    82    42    43 1   
    83    42    83 1   
    84    43    44 1   
    85    43    45 1   
    86    43    46 1   
    87    44    84 1   
    88    44    85 1   
    89    44    86 1   
    90    45    87 1   
    91    45    88 1   
    92    45    89 1   
    93    46    90 1   
    94    46    91 1   
    95    46    92 1   
@<TRIPOS>SUBSTRUCTURE
     1 0DO         1 TEMP              0 ****  ****    0 ROOT
