@<TRIPOS>MOLECULE
0DQ
   19    20     1     0     0
SMALL
No Charge or Current Charge


@<TRIPOS>ATOM
      1 N25          1.3040     2.1750    -0.1630 nv         1 0DQ      -1.055000
      2 C26          1.4660     0.7990    -0.0810 cc         1 0DQ       0.199000
      3 C27          0.5260    -0.2280    -0.0940 cd         1 0DQ       0.171500
      4 N28          1.1200    -1.4850    -0.0700 nd         1 0DQ      -0.264000
      5 N29          2.4260    -1.4510    -0.0480 nc         1 0DQ      -0.132100
      6 S30          3.0610     0.0910    -0.0310 ss         1 0DQ       0.161100
      7 C31         -0.9640    -0.1270    -0.0620 ca         1 0DQ      -0.100500
      8 C32         -1.7520    -1.2780    -0.3160 ca         1 0DQ      -0.100000
      9 C33         -3.1560    -1.2230    -0.2730 ca         1 0DQ      -0.111500
     10 C34         -3.8050    -0.0210     0.0430 ca         1 0DQ      -0.107000
     11 C35         -3.0450     1.1220     0.3260 ca         1 0DQ      -0.111500
     12 C36         -1.6410     1.0700     0.2820 ca         1 0DQ      -0.100000
     13 H25          0.4230     2.5510    -0.5100 hn         1 0DQ       0.483500
     14 H26         -1.2840    -2.2270    -0.5670 ha         1 0DQ       0.120500
     15 H27         -3.7410    -2.1160    -0.4840 ha         1 0DQ       0.113500
     16 H28         -4.8910     0.0210     0.0790 ha         1 0DQ       0.113000
     17 H29         -3.5450     2.0510     0.5930 ha         1 0DQ       0.113500
     18 H30         -1.0980     1.9670     0.5540 ha         1 0DQ       0.120500
     19 H2           2.1240     2.7690    -0.2960 hn         1 0DQ       0.483500
@<TRIPOS>BOND
     1     1     2 1   
     2     1    13 1   
     3     1    19 1   
     4     2     3 2   
     5     2     6 1   
     6     3     4 1   
     7     3     7 1   
     8     4     5 2   
     9     5     6 1   
    10     7     8 ar  
    11     7    12 ar  
    12     8     9 ar  
    13     8    14 1   
    14     9    10 ar  
    15     9    15 1   
    16    10    11 ar  
    17    10    16 1   
    18    11    12 ar  
    19    11    17 1   
    20    12    18 1   
@<TRIPOS>SUBSTRUCTURE
     1 0DQ         1 TEMP              0 ****  ****    0 ROOT
