@<TRIPOS>MOLECULE
0DQ
   19    20     1     0     0
SMALL
bcc


@<TRIPOS>ATOM
      1 N25          1.1970     2.0940    -0.4280 nv         1 0DQ      -0.806200
      2 C26          1.4310     0.7960    -0.1600 cc         1 0DQ       0.140200
      3 C27          0.5160    -0.2270     0.0760 cd         1 0DQ       0.236800
      4 N28          1.1150    -1.4150     0.3190 nd         1 0DQ      -0.264000
      5 N29          2.3770    -1.4310     0.3150 nc         1 0DQ      -0.132100
      6 S30          2.9950     0.1220    -0.0240 ss         1 0DQ       0.016200
      7 C31         -0.9460    -0.1290     0.0520 ca         1 0DQ      -0.100500
      8 C32         -1.7090    -1.1870    -0.4500 ca         1 0DQ      -0.118000
      9 C33         -3.0920    -1.1120    -0.4700 ca         1 0DQ      -0.129500
     10 C34         -3.7420     0.0220     0.0040 ca         1 0DQ      -0.125000
     11 C35         -2.9940     1.0750     0.5110 ca         1 0DQ      -0.129500
     12 C36         -1.6080     0.9990     0.5420 ca         1 0DQ      -0.118000
     13 H25          0.2830     2.3470    -0.7690 hn         1 0DQ       0.428300
     14 H26         -1.2140    -2.0690    -0.8330 ha         1 0DQ       0.138500
     15 H27         -3.6660    -1.9410    -0.8640 ha         1 0DQ       0.131500
     16 H28         -4.8220     0.0810    -0.0170 ha         1 0DQ       0.131000
     17 H29         -3.4870     1.9580     0.8960 ha         1 0DQ       0.131500
     18 H30         -1.0480     1.8170     0.9780 ha         1 0DQ       0.138500
     19 H2           1.9420     2.6610    -0.7980 hn         1 0DQ       0.428300
@<TRIPOS>BOND
     1     1     2 1   
     2     1    13 1   
     3     1    19 1   
     4     2     3 2   
     5     2     6 1   
     6     3     4 1   
     7     3     7 1   
     8     4     5 2   
     9     5     6 1   
    10     7     8 ar  
    11     7    12 ar  
    12     8     9 ar  
    13     8    14 1   
    14     9    10 ar  
    15     9    15 1   
    16    10    11 ar  
    17    10    16 1   
    18    11    12 ar  
    19    11    17 1   
    20    12    18 1   
@<TRIPOS>SUBSTRUCTURE
     1 0DQ         1 TEMP              0 ****  ****    0 ROOT
