@<TRIPOS>MOLECULE
0DS
   68    68     1     0     0
SMALL
No Charge or Current Charge


@<TRIPOS>ATOM
      1 C11         -0.4420     1.5770    10.3570 c3         1 0DS      -0.154400
      2 C21         -1.3460     1.9290     9.1610 c          1 0DS       0.610100
      3 O21         -1.4240     1.2200     8.1650 o          1 0DS      -0.559100
      4 N3          -2.1290     3.0650     9.3270 ns         1 0DS      -0.376400
      5 O3          -2.8710     3.6300     8.2180 oh         1 0DS      -0.424100
      6 C1           1.3470     3.4150    10.2440 c          1 0DS       0.590100
      7 O1           0.8910     4.2180     9.4440 o          1 0DS      -0.590100
      8 C2           1.0740     1.8980    10.1550 c3         1 0DS      -0.123700
      9 C3           1.6920     1.2720     8.8680 c3         1 0DS      -0.069400
     10 C4           3.2250     1.4820     8.6840 c3         1 0DS      -0.063700
     11 C5           3.6910     0.9350     7.3160 c3         1 0DS      -0.091100
     12 CM4          4.0670     0.8690     9.8290 c3         1 0DS      -0.091100
     13 N            2.1530     3.8020    11.2890 ns         1 0DS      -0.512900
     14 CA           2.5780     5.1900    11.5670 c3         1 0DS       0.037700
     15 C            3.9570     5.1460    12.2810 c          1 0DS       0.570100
     16 O            4.2000     4.3760    13.2010 o          1 0DS      -0.582100
     17 CB           1.4610     5.9110    12.3800 c3         1 0DS      -0.073400
     18 CG           1.6570     7.4150    12.7340 c3         1 0DS      -0.057700
     19 CD1          2.6230     7.6660    13.9170 c3         1 0DS      -0.091100
     20 CD2          1.9960     8.2900    11.5050 c3         1 0DS      -0.091100
     21 N1           4.9100     6.0180    11.7890 ns         1 0DS      -0.511900
     22 CA1          6.3180     6.0770    12.2570 c3         1 0DS       0.024700
     23 C6           6.9420     7.4840    11.9960 c          1 0DS       0.611100
     24 O2           8.0760     7.6730    11.5880 o          1 0DS      -0.583100
     25 CB1          7.1570     4.9010    11.6870 c3         1 0DS      -0.038100
     26 CG1          8.3660     4.5560    12.5510 ca         1 0DS      -0.086300
     27 CD11         8.1830     3.9640    13.8160 ca         1 0DS      -0.095000
     28 CD21         9.6730     4.8150    12.0920 ca         1 0DS      -0.095000
     29 CE1          9.2930     3.6410    14.6160 ca         1 0DS      -0.105500
     30 CE2         10.7820     4.4910    12.8920 ca         1 0DS      -0.105500
     31 CZ          10.5930     3.9050    14.1540 ca         1 0DS      -0.101000
     32 N2           6.1230     8.5450    12.1920 nt         1 0DS      -0.605000
     33 H12         -0.7810     2.1230    11.2460 hc         1 0DS       0.065200
     34 H13         -0.5350     0.4990    10.5390 hc         1 0DS       0.065200
     35 HN          -1.9180     3.7020    10.0940 hn         1 0DS       0.326500
     36 HO          -3.7740     3.7690     8.5910 ho         1 0DS       0.444000
     37 H22          1.5800     1.4300    11.0080 hc         1 0DS       0.055700
     38 H31          1.4760     0.1960     8.8560 hc         1 0DS       0.066700
     39 H32          1.1890     1.6990     7.9920 hc         1 0DS       0.066700
     40 H4           3.4230     2.5610     8.6740 hc         1 0DS       0.040700
     41 H51          3.5310    -0.1480     7.2520 hc         1 0DS       0.035200
     42 H52          3.1380     1.4130     6.4970 hc         1 0DS       0.035200
     43 H53          4.7580     1.1350     7.1600 hc         1 0DS       0.035200
     44 HM41         3.8540    -0.2010     9.9420 hc         1 0DS       0.035200
     45 HM42         5.1390     0.9830     9.6240 hc         1 0DS       0.035200
     46 HM43         3.8650     1.3660    10.7850 hc         1 0DS       0.035200
     47 H            2.4910     3.0690    11.9030 hn         1 0DS       0.323500
     48 HA           2.7160     5.7060    10.6080 h1         1 0DS       0.090700
     49 HB2          0.5290     5.8300    11.8070 hc         1 0DS       0.057200
     50 HB3          1.2840     5.3520    13.3080 hc         1 0DS       0.057200
     51 HG           0.6760     7.7590    13.0860 hc         1 0DS       0.050700
     52 HD11         3.6630     7.4610    13.6520 hc         1 0DS       0.035367
     53 HD12         2.5630     8.7130    14.2390 hc         1 0DS       0.035367
     54 HD13         2.3560     7.0380    14.7750 hc         1 0DS       0.035367
     55 HD21         1.2720     8.1210    10.6980 hc         1 0DS       0.035367
     56 HD22         1.9620     9.3540    11.7710 hc         1 0DS       0.035367
     57 HD23         2.9980     8.0710    11.1210 hc         1 0DS       0.035367
     58 H1           4.6400     6.5920    10.9960 hn         1 0DS       0.325500
     59 HA1          6.2890     5.9760    13.3500 h1         1 0DS       0.088700
     60 HB21         6.5230     4.0080    11.6200 hc         1 0DS       0.052700
     61 HB31         7.4530     5.1270    10.6550 hc         1 0DS       0.052700
     62 HD1          7.1790     3.7530    14.1790 ha         1 0DS       0.108500
     63 HD2          9.8300     5.2700    11.1160 ha         1 0DS       0.108500
     64 HE1          9.1440     3.1850    15.5920 ha         1 0DS       0.113000
     65 HE2         11.7890     4.6960    12.5320 ha         1 0DS       0.113000
     66 HZ          11.4520     3.6550    14.7730 ha         1 0DS       0.113000
     67 HN1          5.1840     8.4010    12.5310 hn         1 0DS       0.312500
     68 HN2          6.4730     9.4760    12.0220 hn         1 0DS       0.312500
@<TRIPOS>BOND
     1     1     2 1   
     2     1     8 1   
     3     1    33 1   
     4     1    34 1   
     5     2     3 2   
     6     2     4 1   
     7     4     5 1   
     8     4    35 1   
     9     5    36 1   
    10     6     7 2   
    11     6     8 1   
    12     6    13 1   
    13     8     9 1   
    14     8    37 1   
    15     9    10 1   
    16     9    38 1   
    17     9    39 1   
    18    10    11 1   
    19    10    12 1   
    20    10    40 1   
    21    11    41 1   
    22    11    42 1   
    23    11    43 1   
    24    12    44 1   
    25    12    45 1   
    26    12    46 1   
    27    13    14 1   
    28    13    47 1   
    29    14    15 1   
    30    14    17 1   
    31    14    48 1   
    32    15    16 2   
    33    15    21 1   
    34    17    18 1   
    35    17    49 1   
    36    17    50 1   
    37    18    19 1   
    38    18    20 1   
    39    18    51 1   
    40    19    52 1   
    41    19    53 1   
    42    19    54 1   
    43    20    55 1   
    44    20    56 1   
    45    20    57 1   
    46    21    22 1   
    47    21    58 1   
    48    22    23 1   
    49    22    25 1   
    50    22    59 1   
    51    23    24 2   
    52    23    32 1   
    53    25    26 1   
    54    25    60 1   
    55    25    61 1   
    56    26    27 ar  
    57    26    28 ar  
    58    27    29 ar  
    59    27    62 1   
    60    28    30 ar  
    61    28    63 1   
    62    29    31 ar  
    63    29    64 1   
    64    30    31 ar  
    65    30    65 1   
    66    31    66 1   
    67    32    67 1   
    68    32    68 1   
@<TRIPOS>SUBSTRUCTURE
     1 0DS         1 TEMP              0 ****  ****    0 ROOT
