@<TRIPOS>MOLECULE
0DS
   68    68     1     0     0
SMALL
abcg2


@<TRIPOS>ATOM
      1 C11         -0.0970     1.7940     9.9490 c3         1 0DS      -0.154400
      2 C21         -0.4320     2.2980     8.5620 c          1 0DS       0.610100
      3 O21          0.0600     1.8470     7.5430 o          1 0DS      -0.559100
      4 N3          -1.3960     3.2450     8.5610 ns         1 0DS      -0.376400
      5 O3          -1.6670     3.9250     7.4100 oh         1 0DS      -0.424100
      6 C1           1.4960     3.6720    10.4720 c          1 0DS       0.590100
      7 O1           1.5730     4.3120     9.4340 o          1 0DS      -0.590100
      8 C2           1.3040     2.1660    10.4620 c3         1 0DS      -0.123700
      9 C3           2.4430     1.5140     9.6700 c3         1 0DS      -0.069400
     10 C4           3.8530     1.8290    10.1790 c3         1 0DS      -0.063700
     11 C5           4.8850     1.1970     9.2520 c3         1 0DS      -0.091100
     12 CM4          4.0770     1.3730    11.6170 c3         1 0DS      -0.091100
     13 N            1.5940     4.2310    11.6950 ns         1 0DS      -0.512900
     14 CA           2.0370     5.5940    11.9330 c3         1 0DS       0.037700
     15 C            3.4070     5.4260    12.5910 c          1 0DS       0.570100
     16 O            3.5290     5.2050    13.7850 o          1 0DS      -0.582100
     17 CB           1.0360     6.3740    12.7790 c3         1 0DS      -0.073400
     18 CG           1.2010     7.8990    12.7720 c3         1 0DS      -0.057700
     19 CD1          2.5340     8.3810    13.3350 c3         1 0DS      -0.091100
     20 CD2          0.9600     8.4980    11.3880 c3         1 0DS      -0.091100
     21 N1           4.4600     5.4270    11.7520 ns         1 0DS      -0.511900
     22 CA1          5.7540     4.9550    12.1910 c3         1 0DS       0.024700
     23 C6           6.3550     5.8310    13.2910 c          1 0DS       0.611100
     24 O2           6.9450     5.3330    14.2350 o          1 0DS      -0.583100
     25 CB1          6.6970     4.8920    10.9800 c3         1 0DS      -0.038100
     26 CG1          8.0580     4.3640    11.3320 ca         1 0DS      -0.086300
     27 CD11         8.2630     2.9950    11.4870 ca         1 0DS      -0.095000
     28 CD21         9.1330     5.2260    11.5270 ca         1 0DS      -0.095000
     29 CE1          9.5110     2.4970    11.8320 ca         1 0DS      -0.105500
     30 CE2         10.3850     4.7330    11.8730 ca         1 0DS      -0.105500
     31 CZ          10.5770     3.3670    12.0280 ca         1 0DS      -0.101000
     32 N2           6.2450     7.1520    13.0930 nt         1 0DS      -0.605000
     33 H12         -0.8370     2.1390    10.6750 hc         1 0DS       0.065200
     34 H13         -0.1740     0.7050     9.9270 hc         1 0DS       0.065200
     35 HN          -1.6390     3.7500     9.4020 hn         1 0DS       0.326500
     36 HO          -2.4780     3.5360     7.0570 ho         1 0DS       0.444000
     37 H22          1.3450     1.7920    11.4880 hc         1 0DS       0.055700
     38 H31          2.2930     0.4300     9.6940 hc         1 0DS       0.066700
     39 H32          2.3720     1.8120     8.6230 hc         1 0DS       0.066700
     40 H4           4.0050     2.9140    10.1390 hc         1 0DS       0.040700
     41 H51          4.7990     0.1080     9.2540 hc         1 0DS       0.035200
     42 H52          4.7590     1.5390     8.2230 hc         1 0DS       0.035200
     43 H53          5.9010     1.4490     9.5630 hc         1 0DS       0.035200
     44 HM41         3.8850     0.3020    11.7220 hc         1 0DS       0.035200
     45 HM42         5.1080     1.5550    11.9270 hc         1 0DS       0.035200
     46 HM43         3.4350     1.8970    12.3260 hc         1 0DS       0.035200
     47 H            1.5100     3.6310    12.5020 hn         1 0DS       0.323500
     48 HA           2.1420     6.0630    10.9540 h1         1 0DS       0.090700
     49 HB2          0.0400     6.1390    12.3960 hc         1 0DS       0.057200
     50 HB3          1.0690     6.0060    13.8080 hc         1 0DS       0.057200
     51 HG           0.4130     8.2780    13.4320 hc         1 0DS       0.050700
     52 HD11         3.3680     8.1200    12.6790 hc         1 0DS       0.035367
     53 HD12         2.5340     9.4680    13.4280 hc         1 0DS       0.035367
     54 HD13         2.7370     7.9620    14.3200 hc         1 0DS       0.035367
     55 HD21         0.0010     8.1800    10.9730 hc         1 0DS       0.035367
     56 HD22         0.9550     9.5880    11.4360 hc         1 0DS       0.035367
     57 HD23         1.7390     8.2130    10.6790 hc         1 0DS       0.035367
     58 H1           4.3010     5.5430    10.7620 hn         1 0DS       0.325500
     59 HA1          5.6600     3.9510    12.6140 h1         1 0DS       0.088700
     60 HB21         6.2310     4.2420    10.2340 hc         1 0DS       0.052700
     61 HB31         6.7790     5.8860    10.5310 hc         1 0DS       0.052700
     62 HD1          7.4360     2.3100    11.3330 ha         1 0DS       0.108500
     63 HD2          8.9910     6.2940    11.4090 ha         1 0DS       0.108500
     64 HE1          9.6530     1.4300    11.9450 ha         1 0DS       0.113000
     65 HE2         11.2110     5.4170    12.0210 ha         1 0DS       0.113000
     66 HZ          11.5520     2.9810    12.2950 ha         1 0DS       0.113000
     67 HN1          5.7250     7.5330    12.3210 hn         1 0DS       0.312500
     68 HN2          6.6250     7.8010    13.7630 hn         1 0DS       0.312500
@<TRIPOS>BOND
     1     1     2 1   
     2     1     8 1   
     3     1    33 1   
     4     1    34 1   
     5     2     3 2   
     6     2     4 1   
     7     4     5 1   
     8     4    35 1   
     9     5    36 1   
    10     6     7 2   
    11     6     8 1   
    12     6    13 1   
    13     8     9 1   
    14     8    37 1   
    15     9    10 1   
    16     9    38 1   
    17     9    39 1   
    18    10    11 1   
    19    10    12 1   
    20    10    40 1   
    21    11    41 1   
    22    11    42 1   
    23    11    43 1   
    24    12    44 1   
    25    12    45 1   
    26    12    46 1   
    27    13    14 1   
    28    13    47 1   
    29    14    15 1   
    30    14    17 1   
    31    14    48 1   
    32    15    16 2   
    33    15    21 1   
    34    17    18 1   
    35    17    49 1   
    36    17    50 1   
    37    18    19 1   
    38    18    20 1   
    39    18    51 1   
    40    19    52 1   
    41    19    53 1   
    42    19    54 1   
    43    20    55 1   
    44    20    56 1   
    45    20    57 1   
    46    21    22 1   
    47    21    58 1   
    48    22    23 1   
    49    22    25 1   
    50    22    59 1   
    51    23    24 2   
    52    23    32 1   
    53    25    26 1   
    54    25    60 1   
    55    25    61 1   
    56    26    27 ar  
    57    26    28 ar  
    58    27    29 ar  
    59    27    62 1   
    60    28    30 ar  
    61    28    63 1   
    62    29    31 ar  
    63    29    64 1   
    64    30    31 ar  
    65    30    65 1   
    66    31    66 1   
    67    32    67 1   
    68    32    68 1   
@<TRIPOS>SUBSTRUCTURE
     1 0DS         1 TEMP              0 ****  ****    0 ROOT
