@<TRIPOS>MOLECULE
0DU
   53    55     1     0     0
SMALL
bcc


@<TRIPOS>ATOM
      1 C10          2.0590    -0.6660     0.0880 ca         1 0DU      -0.098800
      2 C13         -0.2930    -2.2040     0.1670 ca         1 0DU      -0.028300
      3 C15         -2.6920    -2.3270    -0.6000 c3         1 0DU      -0.038300
      4 C20         -4.6650     1.7290     0.3790 ca         1 0DU       0.049400
      5 C22         -4.8790     2.9190     1.0560 ca         1 0DU      -0.144500
      6 C24         -2.5110     3.3580     0.9740 ca         1 0DU      -0.144500
      7 C02          5.4710     1.8920    -0.1770 cc         1 0DU       0.066400
      8 C03          5.6100     0.6740     0.4190 cd         1 0DU      -0.232000
      9 C04          4.5030    -0.1930     0.5200 cd         1 0DU      -0.106200
     10 C05          4.6950    -1.5240     1.2020 c3         1 0DU       0.719100
     11 F06          4.1460    -1.5300     2.4230 f          1 0DU      -0.231633
     12 F07          4.1540    -2.5330     0.5160 f          1 0DU      -0.231633
     13 F08          5.9890    -1.8190     1.3620 f          1 0DU      -0.231633
     14 C09          3.2840     0.1640     0.0230 cc         1 0DU      -0.060400
     15 C11          1.3250    -0.7780     1.2610 ca         1 0DU      -0.093500
     16 C12          0.1620    -1.5370     1.2960 ca         1 0DU      -0.131000
     17 C14         -1.5630    -3.0070     0.1830 c3         1 0DU      -0.044100
     18 N16         -2.9240    -1.0080    -0.0640 ns         1 0DU      -0.502900
     19 O18         -3.2180     0.0970    -2.0250 o          1 0DU      -0.607100
     20 C19         -3.3910     1.3260    -0.0070 ca         1 0DU      -0.122600
     21 C23         -3.7920     3.7290     1.3500 ca         1 0DU      -0.121000
     22 C25         -2.3230     2.1630     0.2960 ca         1 0DU       0.049400
     23 CL2         -0.7260     1.7080    -0.1780 cl         1 0DU      -0.055900
     24 C27         -3.9720    -3.2050    -0.6380 c          1 0DU       0.927600
     25 O28         -5.0380    -2.6820    -0.2840 o          1 0DU      -0.821300
     26 O29         -3.7900    -4.3700    -1.0440 o          1 0DU      -0.821300
     27 C30          0.4480    -2.0860    -1.0090 ca         1 0DU      -0.131000
     28 C31          1.6010    -1.3230    -1.0510 ca         1 0DU      -0.093500
     29 C32          3.1350     1.4440    -0.6370 c          1 0DU       0.684700
     30 O33          2.0880     1.8250    -1.1460 o          1 0DU      -0.597500
     31 N34          4.2590     2.2640    -0.6750 n          1 0DU      -0.338000
     32 C35          4.0530     3.5570    -1.3170 c3         1 0DU       0.072300
     33 H15         -2.3570    -2.1990    -1.6320 h1         1 0DU       0.069700
     34 H24         -1.6670     3.9930     1.2030 ha         1 0DU       0.137500
     35 H03          6.5810     0.3960     0.7960 ha         1 0DU       0.155000
     36 H11          1.6510    -0.2600     2.1550 ha         1 0DU       0.122000
     37 H12         -0.3960    -1.6080     2.2220 ha         1 0DU       0.135000
     38 H14         -1.3950    -3.9880    -0.2620 hc         1 0DU       0.061700
     39 H14A        -1.8840    -3.1810     1.2150 hc         1 0DU       0.061700
     40 HN16        -2.9980    -0.9150     0.9370 hn         1 0DU       0.302500
     41 H23         -3.9480     4.6600     1.8780 ha         1 0DU       0.122000
     42 H30          0.1180    -2.5990    -1.9050 ha         1 0DU       0.135000
     43 H31          2.1600    -1.2490    -1.9760 ha         1 0DU       0.122000
     44 H35          3.8430     3.4270    -2.3770 h1         1 0DU       0.054367
     45 H35A         3.2110     4.0690    -0.8570 h1         1 0DU       0.054367
     46 H35B         4.9320     4.1780    -1.2100 h1         1 0DU       0.054367
     47 C17         -3.1780     0.0660    -0.8030 c          1 0DU       0.690700
     48 CL1         -6.0140     0.7130     0.0110 cl         1 0DU      -0.055900
     49 C01          6.6380     2.8170    -0.2960 c3         1 0DU      -0.062900
     50 H22         -5.8780     3.2100     1.3480 ha         1 0DU       0.137500
     51 H01          6.4850     3.7390     0.2660 hc         1 0DU       0.054033
     52 H01A         7.5270     2.3320     0.1000 hc         1 0DU       0.054033
     53 H01B         6.8370     3.0890    -1.3330 hc         1 0DU       0.054033
@<TRIPOS>BOND
     1     1    14 1   
     2     1    15 ar  
     3     1    28 ar  
     4     2    16 ar  
     5     2    17 1   
     6     2    27 ar  
     7     3    17 1   
     8     3    18 1   
     9     3    24 1   
    10     3    33 1   
    11     4     5 ar  
    12     4    20 ar  
    13     4    48 1   
    14     5    21 ar  
    15     5    50 1   
    16     6    21 ar  
    17     6    22 ar  
    18     6    34 1   
    19     7     8 2   
    20     7    31 1   
    21     7    49 1   
    22     8     9 1   
    23     8    35 1   
    24     9    10 1   
    25     9    14 2   
    26    10    11 1   
    27    10    12 1   
    28    10    13 1   
    29    14    29 1   
    30    15    16 ar  
    31    15    36 1   
    32    16    37 1   
    33    17    38 1   
    34    17    39 1   
    35    18    40 1   
    36    18    47 1   
    37    19    47 2   
    38    20    22 ar  
    39    20    47 1   
    40    21    41 1   
    41    22    23 1   
    42    24    25 1   
    43    24    26 1   
    44    27    28 ar  
    45    27    42 1   
    46    28    43 1   
    47    29    30 2   
    48    29    31 1   
    49    31    32 1   
    50    32    44 1   
    51    32    45 1   
    52    32    46 1   
    53    49    51 1   
    54    49    52 1   
    55    49    53 1   
@<TRIPOS>SUBSTRUCTURE
     1 0DU         1 TEMP              0 ****  ****    0 ROOT
