@<TRIPOS>MOLECULE
0DU
   53    55     1     0     0
SMALL
No Charge or Current Charge


@<TRIPOS>ATOM
      1 C10          2.0570    -0.5650     0.1050 ca         1 0DU      -0.098800
      2 C13         -0.2500    -2.1490     0.5160 ca         1 0DU      -0.028300
      3 C15         -2.7420    -2.5360    -0.0530 c3         1 0DU      -0.038300
      4 C20         -3.8910     2.2230    -0.8990 ca         1 0DU       0.141000
      5 C22         -4.3130     3.4800    -0.4310 ca         1 0DU      -0.126500
      6 C24         -3.4500     2.9620     1.7700 ca         1 0DU      -0.126500
      7 C02          5.4850     1.8760    -0.5390 cc         1 0DU       0.066400
      8 C03          5.6170     0.5290    -0.2670 cd         1 0DU      -0.282000
      9 C04          4.4770    -0.3350    -0.0350 cd         1 0DU      -0.106200
     10 C05          4.6820    -1.8250     0.2670 c3         1 0DU       0.355200
     11 F06          4.1490    -2.1840     1.4570 f          1 0DU      -0.110333
     12 F07          4.1250    -2.6170    -0.6770 f          1 0DU      -0.110333
     13 F08          5.9890    -2.1730     0.3240 f          1 0DU      -0.110333
     14 C09          3.2300     0.2840    -0.1130 cc         1 0DU      -0.060400
     15 C11          1.4990    -0.6870     1.3900 ca         1 0DU      -0.075500
     16 C12          0.3590    -1.4810     1.5960 ca         1 0DU      -0.113000
     17 C14         -1.4940    -3.0050     0.7410 c3         1 0DU      -0.044100
     18 N16         -3.0960    -1.1240     0.2430 ns         1 0DU      -0.435900
     19 O18         -2.1870    -0.1570    -1.6050 o          1 0DU      -0.607100
     20 C19         -3.2430     1.3090    -0.0300 ca         1 0DU      -0.122600
     21 C23         -4.0940     3.8520     0.9020 ca         1 0DU      -0.103000
     22 C25         -3.0260     1.7000     1.3170 ca         1 0DU       0.141000
     23 Cl2         -2.1660     0.6890     2.4790 cl         1 0DU      -0.147500
     24 C27         -3.9610    -3.4660     0.2160 c          1 0DU       0.717000
     25 O28         -4.5490    -3.3630     1.2850 o          1 0DU      -0.716000
     26 O29         -4.3340    -4.2020    -0.6870 o          1 0DU      -0.716000
     27 C30          0.3110    -2.0270    -0.7700 ca         1 0DU      -0.113000
     28 C31          1.4520    -1.2330    -0.9760 ca         1 0DU      -0.075500
     29 C32          3.0400     1.7280    -0.3980 c          1 0DU       0.542200
     30 O33          1.9260     2.2380    -0.4640 o          1 0DU      -0.522000
     31 N34          4.2230     2.4780    -0.5890 n          1 0DU      -0.271000
     32 C35          4.0910     3.9370    -0.8650 c3         1 0DU       0.072300
     33 H15         -2.5190    -2.6200    -1.1240 h1         1 0DU       0.069700
     34 H24         -3.2690     3.2530     2.8030 ha         1 0DU       0.119500
     35 H03          6.6200     0.1110    -0.2320 ha         1 0DU       0.205000
     36 H11          1.9530    -0.1670     2.2310 ha         1 0DU       0.104000
     37 H12         -0.0560    -1.5690     2.5970 ha         1 0DU       0.117000
     38 H14         -1.2730    -4.0430     0.4620 hc         1 0DU       0.061700
     39 H14A        -1.7470    -3.0290     1.8080 hc         1 0DU       0.061700
     40 HN16        -3.6090    -0.9340     1.0960 hn         1 0DU       0.302500
     41 H23         -4.4200     4.8270     1.2590 ha         1 0DU       0.104000
     42 H30         -0.1430    -2.5400    -1.6140 ha         1 0DU       0.117000
     43 H31          1.8680    -1.1360    -1.9760 ha         1 0DU       0.104000
     44 H35          4.3420     4.1350    -1.9140 h1         1 0DU       0.054367
     45 H35A         3.0760     4.3050    -0.6740 h1         1 0DU       0.054367
     46 H35B         4.7720     4.5040    -0.2190 h1         1 0DU       0.054367
     47 C17         -2.7960    -0.0340    -0.5500 c          1 0DU       0.623700
     48 Cl1         -4.2720     1.8210    -2.5750 cl         1 0DU      -0.147500
     49 C01          6.7170     2.7210    -0.7870 c3         1 0DU      -0.062900
     50 H22         -4.8190     4.1650    -1.1060 ha         1 0DU       0.119500
     51 H01          6.8540     3.4620     0.0100 hc         1 0DU       0.054033
     52 H01A         7.6270     2.1110    -0.8200 hc         1 0DU       0.054033
     53 H01B         6.6520     3.2500    -1.7450 hc         1 0DU       0.054033
@<TRIPOS>BOND
     1     1    14 1   
     2     1    15 ar  
     3     1    28 ar  
     4     2    16 ar  
     5     2    17 1   
     6     2    27 ar  
     7     3    17 1   
     8     3    18 1   
     9     3    24 1   
    10     3    33 1   
    11     4     5 ar  
    12     4    20 ar  
    13     4    48 1   
    14     5    21 ar  
    15     5    50 1   
    16     6    21 ar  
    17     6    22 ar  
    18     6    34 1   
    19     7     8 2   
    20     7    31 1   
    21     7    49 1   
    22     8     9 1   
    23     8    35 1   
    24     9    10 1   
    25     9    14 2   
    26    10    11 1   
    27    10    12 1   
    28    10    13 1   
    29    14    29 1   
    30    15    16 ar  
    31    15    36 1   
    32    16    37 1   
    33    17    38 1   
    34    17    39 1   
    35    18    40 1   
    36    18    47 1   
    37    19    47 2   
    38    20    22 ar  
    39    20    47 1   
    40    21    41 1   
    41    22    23 1   
    42    24    25 1   
    43    24    26 1   
    44    27    28 ar  
    45    27    42 1   
    46    28    43 1   
    47    29    30 2   
    48    29    31 1   
    49    31    32 1   
    50    32    44 1   
    51    32    45 1   
    52    32    46 1   
    53    49    51 1   
    54    49    52 1   
    55    49    53 1   
@<TRIPOS>SUBSTRUCTURE
     1 0DU         1 TEMP              0 ****  ****    0 ROOT
