@<TRIPOS>MOLECULE
0DV
   76    79     1     0     0
SMALL
No Charge or Current Charge


@<TRIPOS>ATOM
      1 CAQ         27.0570   -18.6370     0.9370 c3         1 0DV      -0.084600
      2 CAP         26.2870   -18.4180    -0.3840 c3         1 0DV      -0.022500
      3 CAR         27.0050   -17.4170    -1.3120 c3         1 0DV      -0.084600
      4 CAN         24.8470   -18.0030    -0.1400 c2         1 0DV      -0.086400
      5 CAF         23.7610   -18.5940    -0.6460 c2         1 0DV      -0.137400
      6 CAM         24.4580   -16.8750     0.7920 c5         1 0DV      -0.049200
      7 CAL         22.9870   -16.5810     0.3810 c5         1 0DV      -0.073400
      8 CAE         22.4810   -17.9760    -0.1330 c5         1 0DV       0.030400
      9 CAO         21.4390   -17.8190    -1.2640 c3         1 0DV      -0.084100
     10 CAD         21.8300   -18.6820     1.0730 c2         1 0DV      -0.207200
     11 CAC         22.1580   -19.8800     1.6220 c2         1 0DV      -0.103400
     12 CAK         21.4590   -20.4040     2.8820 c5         1 0DV      -0.035500
     13 CAV         19.9070   -20.4300     2.8030 c3         1 0DV       0.169600
     14 OBH         19.3450   -20.9150     4.0300 oh         1 0DV      -0.671000
     15 CAJ         22.0900   -21.8040     3.1430 c5         1 0DV      -0.066400
     16 CAI         23.5310   -21.5910     2.6250 c5         1 0DV      -0.080400
     17 CAB         23.2930   -20.8590     1.2680 c5         1 0DV      -0.020500
     18 CAA         23.0160   -21.8270     0.0510 c3         1 0DV      -0.074700
     19 CAS         21.5250   -21.9200    -0.3850 c3         1 0DV      -0.085100
     20 CAH         23.9820   -21.5980    -1.1600 c3         1 0DV       0.161300
     21 OAU         23.9220   -22.7450    -2.0360 oh         1 0DV      -0.729000
     22 CAG         23.7200   -20.2640    -1.9360 c3         1 0DV       0.241500
     23 O1          24.7390   -20.0610    -2.9500 os         1 0DV      -0.499000
     24 C1          24.4800   -20.6090    -4.2680 c6         1 0DV       0.347300
     25 O5          23.3670   -19.9030    -4.8590 os         1 0DV      -0.459000
     26 C5          23.5130   -18.4500    -4.9430 c6         1 0DV       0.147300
     27 C6          22.3510   -17.9220    -5.8550 c3         1 0DV       0.165600
     28 O6          21.0400   -18.3300    -5.4110 oh         1 0DV      -0.720000
     29 C4          24.9570   -18.0490    -5.4370 c6         1 0DV       0.101300
     30 O4          24.9790   -16.8670    -6.2760 oh         1 0DV      -0.734000
     31 C3          25.6040   -19.2570    -6.1630 c6         1 0DV       0.155300
     32 O3          26.8450   -18.8620    -6.7760 oh         1 0DV      -0.634000
     33 C2          25.7630   -20.4640    -5.1660 c6         1 0DV       0.169300
     34 O2          26.9110   -20.3350    -4.2920 oh         1 0DV      -0.705000
     35 H1          26.5350   -19.3650     1.5710 hc         1 0DV       0.033533
     36 H2          28.0640   -19.0210     0.7370 hc         1 0DV       0.033533
     37 H3          27.1540   -17.7000     1.4970 hc         1 0DV       0.033533
     38 H4          26.2810   -19.3820    -0.9040 hc         1 0DV       0.067700
     39 H5          28.0180   -17.7650    -1.5470 hc         1 0DV       0.033533
     40 H6          26.4550   -17.3060    -2.2540 hc         1 0DV       0.033533
     41 H7          27.0810   -16.4300    -0.8410 hc         1 0DV       0.033533
     42 H8          24.5380   -17.1920     1.8380 hc         1 0DV       0.052200
     43 H9          25.0930   -15.9920     0.6620 hc         1 0DV       0.052200
     44 H10         22.9730   -15.8400    -0.4270 hc         1 0DV       0.052700
     45 H11         22.3890   -16.1650     1.2000 hc         1 0DV       0.052700
     46 H12         20.5670   -17.2490    -0.9210 hc         1 0DV       0.043700
     47 H13         21.8630   -17.2900    -2.1250 hc         1 0DV       0.043700
     48 H14         21.0780   -18.7900    -1.6180 hc         1 0DV       0.043700
     49 H15         21.0110   -18.1380     1.5440 ha         1 0DV       0.166000
     50 H16         21.7090   -19.7360     3.7150 hc         1 0DV       0.066700
     51 H17         19.5360   -19.4170     2.6020 h1         1 0DV       0.024200
     52 H18         19.5990   -21.0680     1.9650 h1         1 0DV       0.024200
     53 H19         18.3690   -20.9120     3.9170 ho         1 0DV       0.441000
     54 H20         21.5790   -22.6010     2.5910 hc         1 0DV       0.050700
     55 H21         22.0650   -22.0820     4.2030 hc         1 0DV       0.050700
     56 H22         24.0900   -22.5280     2.5230 hc         1 0DV       0.044700
     57 H23         24.1010   -20.9570     3.3150 hc         1 0DV       0.044700
     58 H24         24.2240   -20.3290     1.0560 hc         1 0DV       0.063700
     59 H25         23.2590   -22.8360     0.4050 hc         1 0DV       0.040700
     60 H26         20.8930   -22.2650     0.4390 hc         1 0DV       0.040033
     61 H27         21.1430   -20.9500    -0.7210 hc         1 0DV       0.040033
     62 H28         21.3960   -22.6340    -1.2060 hc         1 0DV       0.040033
     63 H29         24.9990   -21.5270    -0.7510 h1         1 0DV       0.044700
     64 H30         24.1920   -23.5290    -1.5060 ho         1 0DV       0.508000
     65 H31         22.7250   -20.3130    -2.3950 h1         1 0DV       0.060700
     66 H32         24.2340   -21.6780    -4.1890 h2         1 0DV       0.081700
     67 H33         23.3650   -18.0280    -3.9390 h1         1 0DV       0.064700
     68 H34         22.5310   -18.2810    -6.8780 h1         1 0DV       0.035700
     69 H35         22.4020   -16.8250    -5.8810 h1         1 0DV       0.035700
     70 H36         20.3980   -18.0310    -6.0960 ho         1 0DV       0.499000
     71 H37         25.5600   -17.8580    -4.5360 h1         1 0DV       0.070700
     72 H38         24.8490   -16.0820    -5.6910 ho         1 0DV       0.510000
     73 H39         24.9080   -19.5730    -6.9550 h1         1 0DV       0.044700
     74 H40         26.7020   -17.9110    -6.9890 ho         1 0DV       0.450000
     75 H41         25.8580   -21.3800    -5.7680 h1         1 0DV       0.071700
     76 H42         26.4930   -20.1260    -3.4170 ho         1 0DV       0.534000
@<TRIPOS>BOND
     1     1     2 1   
     2     1    35 1   
     3     1    36 1   
     4     1    37 1   
     5     2     3 1   
     6     2     4 1   
     7     2    38 1   
     8     3    39 1   
     9     3    40 1   
    10     3    41 1   
    11     4     5 2   
    12     4     6 1   
    13     5     8 1   
    14     5    22 1   
    15     6     7 1   
    16     6    42 1   
    17     6    43 1   
    18     7     8 1   
    19     7    44 1   
    20     7    45 1   
    21     8     9 1   
    22     8    10 1   
    23     9    46 1   
    24     9    47 1   
    25     9    48 1   
    26    10    11 2   
    27    10    49 1   
    28    11    12 1   
    29    11    17 1   
    30    12    13 1   
    31    12    15 1   
    32    12    50 1   
    33    13    14 1   
    34    13    51 1   
    35    13    52 1   
    36    14    53 1   
    37    15    16 1   
    38    15    54 1   
    39    15    55 1   
    40    16    17 1   
    41    16    56 1   
    42    16    57 1   
    43    17    18 1   
    44    17    58 1   
    45    18    19 1   
    46    18    20 1   
    47    18    59 1   
    48    19    60 1   
    49    19    61 1   
    50    19    62 1   
    51    20    21 1   
    52    20    22 1   
    53    20    63 1   
    54    21    64 1   
    55    22    23 1   
    56    22    65 1   
    57    23    24 1   
    58    24    25 1   
    59    24    33 1   
    60    24    66 1   
    61    25    26 1   
    62    26    27 1   
    63    26    29 1   
    64    26    67 1   
    65    27    28 1   
    66    27    68 1   
    67    27    69 1   
    68    28    70 1   
    69    29    30 1   
    70    29    31 1   
    71    29    71 1   
    72    30    72 1   
    73    31    32 1   
    74    31    33 1   
    75    31    73 1   
    76    32    74 1   
    77    33    34 1   
    78    33    75 1   
    79    34    76 1   
@<TRIPOS>SUBSTRUCTURE
     1 0DV         1 TEMP              0 ****  ****    0 ROOT
