@<TRIPOS>MOLECULE
0DV
   76    79     1     0     0
SMALL
abcg2


@<TRIPOS>ATOM
      1 CAQ         26.7030   -18.4860     0.3940 c3         1 0DV      -0.084600
      2 CAP         25.9410   -18.2280    -0.9160 c3         1 0DV      -0.022500
      3 CAR         26.5400   -17.0040    -1.6260 c3         1 0DV      -0.084600
      4 CAN         24.4640   -18.0700    -0.6620 c2         1 0DV      -0.086400
      5 CAF         23.4710   -18.9140    -0.9720 c2         1 0DV      -0.137400
      6 CAM         23.9310   -16.8720     0.0940 c5         1 0DV      -0.049200
      7 CAL         22.4300   -16.9100    -0.2090 c5         1 0DV      -0.073400
      8 CAE         22.1140   -18.4070    -0.4890 c5         1 0DV       0.030400
      9 CAO         21.0070   -18.5320    -1.5500 c3         1 0DV      -0.084100
     10 CAD         21.6160   -19.0550     0.7870 c2         1 0DV      -0.207200
     11 CAC         22.1500   -19.9780     1.5820 c2         1 0DV      -0.103400
     12 CAK         21.4490   -20.4410     2.8670 c5         1 0DV      -0.035500
     13 CAV         19.9980   -20.8370     2.6640 c3         1 0DV       0.169600
     14 OBH         19.4450   -21.2010     3.9370 oh         1 0DV      -0.671000
     15 CAJ         22.3280   -21.5780     3.4140 c5         1 0DV      -0.066400
     16 CAI         23.7220   -21.2500     2.8780 c5         1 0DV      -0.080400
     17 CAB         23.4900   -20.6940     1.4580 c5         1 0DV      -0.020500
     18 CAA         23.5610   -21.7980     0.3570 c3         1 0DV      -0.074700
     19 CAS         22.2250   -22.4590     0.0110 c3         1 0DV      -0.085100
     20 CAH         24.3140   -21.3130    -0.8970 c3         1 0DV       0.161300
     21 OAU         24.5350   -22.4020    -1.8050 oh         1 0DV      -0.729000
     22 CAG         23.5880   -20.2280    -1.6980 c3         1 0DV       0.241500
     23 O1          24.3040   -20.0690    -2.9380 os         1 0DV      -0.499000
     24 C1          23.5660   -20.1280    -4.1280 c6         1 0DV       0.347300
     25 O5          23.0840   -18.8670    -4.5270 os         1 0DV      -0.459000
     26 C5          24.0800   -17.8220    -4.5320 c6         1 0DV       0.147300
     27 C6          23.5650   -16.7260    -5.4390 c3         1 0DV       0.165600
     28 O6          22.3440   -16.2290    -4.8860 oh         1 0DV      -0.720000
     29 C4          25.4630   -18.3770    -4.9610 c6         1 0DV       0.101300
     30 O4          26.2550   -17.4150    -5.6620 oh         1 0DV      -0.734000
     31 C3          25.2750   -19.5640    -5.8980 c6         1 0DV       0.155300
     32 O3          26.5240   -20.0430    -6.3710 oh         1 0DV      -0.634000
     33 C2          24.4930   -20.7130    -5.2140 c6         1 0DV       0.169300
     34 O2          25.3140   -21.7300    -4.6730 oh         1 0DV      -0.705000
     35 H1          26.3480   -19.3880     0.8940 hc         1 0DV       0.033533
     36 H2          27.7690   -18.6100     0.1890 hc         1 0DV       0.033533
     37 H3          26.5880   -17.6490     1.0850 hc         1 0DV       0.033533
     38 H4          26.0860   -19.0900    -1.5670 hc         1 0DV       0.067700
     39 H5          27.5720   -17.2100    -1.9180 hc         1 0DV       0.033533
     40 H6          25.9790   -16.7390    -2.5230 hc         1 0DV       0.033533
     41 H7          26.5470   -16.1320    -0.9700 hc         1 0DV       0.033533
     42 H8          24.1320   -16.9880     1.1660 hc         1 0DV       0.052200
     43 H9          24.3940   -15.9330    -0.2120 hc         1 0DV       0.052200
     44 H10         22.2340   -16.3370    -1.1190 hc         1 0DV       0.052700
     45 H11         21.8100   -16.4990     0.5880 hc         1 0DV       0.052700
     46 H12         20.1130   -18.0020    -1.2140 hc         1 0DV       0.043700
     47 H13         21.3330   -18.0990    -2.4960 hc         1 0DV       0.043700
     48 H14         20.7270   -19.5730    -1.7240 hc         1 0DV       0.043700
     49 H15         20.6470   -18.6560     1.0830 ha         1 0DV       0.166000
     50 H16         21.4660   -19.6120     3.5840 hc         1 0DV       0.066700
     51 H17         19.4290   -20.0060     2.2370 h1         1 0DV       0.024200
     52 H18         19.9400   -21.6820     1.9700 h1         1 0DV       0.024200
     53 H19         18.5240   -21.4540     3.8030 ho         1 0DV       0.441000
     54 H20         21.9810   -22.5370     3.0220 hc         1 0DV       0.050700
     55 H21         22.2950   -21.6420     4.5010 hc         1 0DV       0.050700
     56 H22         24.4010   -22.1030     2.8850 hc         1 0DV       0.044700
     57 H23         24.1710   -20.4670     3.4960 hc         1 0DV       0.044700
     58 H24         24.2700   -19.9720     1.2320 hc         1 0DV       0.063700
     59 H25         24.2110   -22.5790     0.7660 hc         1 0DV       0.040700
     60 H26         21.8090   -22.9660     0.8810 hc         1 0DV       0.040033
     61 H27         21.4880   -21.7320    -0.3280 hc         1 0DV       0.040033
     62 H28         22.3630   -23.2030    -0.7740 hc         1 0DV       0.040033
     63 H29         25.2830   -20.9190    -0.5810 h1         1 0DV       0.044700
     64 H30         24.9720   -23.1130    -1.3190 ho         1 0DV       0.508000
     65 H31         22.5930   -20.6010    -1.9420 h1         1 0DV       0.060700
     66 H32         22.6800   -20.7530    -3.9950 h2         1 0DV       0.081700
     67 H33         24.1470   -17.4270    -3.5160 h1         1 0DV       0.064700
     68 H34         23.4020   -17.1170    -6.4490 h1         1 0DV       0.035700
     69 H35         24.3130   -15.9320    -5.4920 h1         1 0DV       0.035700
     70 H36         22.0620   -15.4740    -5.4160 ho         1 0DV       0.499000
     71 H37         26.0060   -18.7100    -4.0760 h1         1 0DV       0.070700
     72 H38         26.7370   -16.8780    -5.0220 ho         1 0DV       0.510000
     73 H39         24.6720   -19.2190    -6.7470 h1         1 0DV       0.044700
     74 H40         27.0210   -19.2600    -6.6470 ho         1 0DV       0.450000
     75 H41         23.8580   -21.1730    -5.9750 h1         1 0DV       0.071700
     76 H42         25.2640   -21.6610    -3.7030 ho         1 0DV       0.534000
@<TRIPOS>BOND
     1     1     2 1   
     2     1    35 1   
     3     1    36 1   
     4     1    37 1   
     5     2     3 1   
     6     2     4 1   
     7     2    38 1   
     8     3    39 1   
     9     3    40 1   
    10     3    41 1   
    11     4     5 2   
    12     4     6 1   
    13     5     8 1   
    14     5    22 1   
    15     6     7 1   
    16     6    42 1   
    17     6    43 1   
    18     7     8 1   
    19     7    44 1   
    20     7    45 1   
    21     8     9 1   
    22     8    10 1   
    23     9    46 1   
    24     9    47 1   
    25     9    48 1   
    26    10    11 2   
    27    10    49 1   
    28    11    12 1   
    29    11    17 1   
    30    12    13 1   
    31    12    15 1   
    32    12    50 1   
    33    13    14 1   
    34    13    51 1   
    35    13    52 1   
    36    14    53 1   
    37    15    16 1   
    38    15    54 1   
    39    15    55 1   
    40    16    17 1   
    41    16    56 1   
    42    16    57 1   
    43    17    18 1   
    44    17    58 1   
    45    18    19 1   
    46    18    20 1   
    47    18    59 1   
    48    19    60 1   
    49    19    61 1   
    50    19    62 1   
    51    20    21 1   
    52    20    22 1   
    53    20    63 1   
    54    21    64 1   
    55    22    23 1   
    56    22    65 1   
    57    23    24 1   
    58    24    25 1   
    59    24    33 1   
    60    24    66 1   
    61    25    26 1   
    62    26    27 1   
    63    26    29 1   
    64    26    67 1   
    65    27    28 1   
    66    27    68 1   
    67    27    69 1   
    68    28    70 1   
    69    29    30 1   
    70    29    31 1   
    71    29    71 1   
    72    30    72 1   
    73    31    32 1   
    74    31    33 1   
    75    31    73 1   
    76    32    74 1   
    77    33    34 1   
    78    33    75 1   
    79    34    76 1   
@<TRIPOS>SUBSTRUCTURE
     1 0DV         1 TEMP              0 ****  ****    0 ROOT
