@<TRIPOS>MOLECULE
0DX
  126   133     1     0     0
SMALL
bcc


@<TRIPOS>ATOM
      1 CAA         12.3990    -3.3610     0.1860 c3         1 0DX       0.153100
      2 OAE         -0.0400     3.9800    -1.4480 o          1 0DX      -0.602500
      3 OAF          0.0970    -3.9480     1.1270 o          1 0DX      -0.602500
      4 OAG          3.7910     1.6290    -1.0610 o          1 0DX      -0.644500
      5 OAH         -3.7280    -1.5890     0.7670 o          1 0DX      -0.644500
      6 CAI         -1.6180     1.8410    -0.6440 ca         1 0DX      -0.129500
      7 CAJ          1.6740    -1.8200     0.2880 ca         1 0DX      -0.129500
      8 CAK          6.0140    -1.9150    -0.1000 c3         1 0DX      -0.096900
      9 CAL         -5.9610     1.9090    -0.2120 c3         1 0DX      -0.096900
     10 CAM          3.0960     4.7980    -0.5640 c3         1 0DX      -0.094900
     11 CAN         -3.0950    -4.7840     0.4660 c3         1 0DX      -0.094900
     12 CAO          4.5230    -2.1020     0.1310 c3         1 0DX       0.224300
     13 CAP         -4.4760     2.1210    -0.4550 c3         1 0DX       0.224300
     14 CAQ          6.7830    -3.1560     0.3310 c3         1 0DX       0.173800
     15 CAR         -6.7600     3.1690    -0.5120 c3         1 0DX       0.173800
     16 CAS          3.8890     6.0010    -1.0560 c3         1 0DX       0.172300
     17 CAT         -3.8860    -5.9230     1.0960 c3         1 0DX       0.172300
     18 CAU         10.2710    -4.3760    -0.2400 c6         1 0DX       0.163550
     19 CAV         10.3810    -2.0820     0.3510 c6         1 0DX       0.163550
     20 CAW        -10.0890     2.5580     1.1090 c6         1 0DX       0.163550
     21 CAX        -10.4290     3.7930    -0.8920 c6         1 0DX       0.163550
     22 CAY          6.1610     8.4230     0.6540 c6         1 0DX       0.129650
     23 CAZ          4.2740     8.1720     1.9790 c6         1 0DX       0.129650
     24 CBA         -6.3430    -8.3950    -0.2430 c6         1 0DX       0.129650
     25 CBB         -4.5800    -8.2720    -1.7450 c6         1 0DX       0.129650
     26 CBC          8.8120    -4.4080     0.1720 c6         1 0DX       0.164050
     27 CBD          8.9200    -2.1110     0.7600 c6         1 0DX       0.164050
     28 CBE         -8.5990     2.8260     1.0190 c6         1 0DX       0.164050
     29 CBF         -8.9390     4.0590    -0.9790 c6         1 0DX       0.164050
     30 CBG          5.4780     7.7040    -0.4930 c6         1 0DX       0.126300
     31 CBH          3.5520     7.4380     0.8640 c6         1 0DX       0.126300
     32 CBI         -5.5500    -7.6150     0.7870 c6         1 0DX       0.126300
     33 CBJ         -3.7500    -7.4800    -0.7520 c6         1 0DX       0.126300
     34 CBK          2.6440     3.9380    -1.7380 c3         1 0DX       0.091000
     35 CBL         -2.5680    -3.8560     1.5530 c3         1 0DX       0.091000
     36 NBM          3.8110    -0.8960    -0.2260 nu         1 0DX      -0.761100
     37 NBN         -3.7550     0.9110    -0.1320 nu         1 0DX      -0.761100
     38 CBO          2.4820    -0.7370    -0.1560 ca         1 0DX       0.265600
     39 CBP         -2.4250     0.7580    -0.2000 ca         1 0DX       0.265600
     40 CBQ          0.5020     2.9240    -1.1890 c          1 0DX       0.727100
     41 CBR         -0.4430    -2.8920     0.8660 c          1 0DX       0.727100
     42 CBS          2.5710     1.6230    -0.9640 c          1 0DX       0.750600
     43 CBT         -2.5090    -1.5870     0.6520 c          1 0DX       0.750600
     44 CBU         -0.2580     1.7420    -0.7360 ca         1 0DX      -0.094600
     45 CBV          0.3150    -1.7190     0.3860 ca         1 0DX      -0.094600
     46 CBW          1.8210     0.4630    -0.5050 ca         1 0DX      -0.254600
     47 CBX         -1.7640    -0.4390     0.1570 ca         1 0DX      -0.254600
     48 CBY          0.4180     0.5500    -0.4000 ca         1 0DX       0.005000
     49 CBZ         -0.3610    -0.5280     0.0470 ca         1 0DX       0.005000
     50 NCA         10.9950    -3.3810     0.5240 n3         1 0DX      -0.717600
     51 NCB        -10.8420     3.6270     0.4870 n3         1 0DX      -0.717600
     52 OCC          5.2270     9.0840     1.4800 os         1 0DX      -0.403600
     53 OCD         -5.4970    -9.1280    -1.1010 os         1 0DX      -0.403600
     54 NCE          8.1930    -3.1070    -0.0040 n3         1 0DX      -0.720100
     55 NCF         -8.1900     2.9790    -0.3650 n3         1 0DX      -0.720100
     56 NCG          4.5110     6.7490     0.0180 n3         1 0DX      -0.715600
     57 NCH         -4.6160    -6.7190     0.1300 n3         1 0DX      -0.715600
     58 NCI          1.8670     2.7740    -1.3050 n          1 0DX      -0.496400
     59 NCJ         -1.8020    -2.7270     1.0200 n          1 0DX      -0.496400
     60 HAA         12.5880    -3.1050    -0.8680 h1         1 0DX       0.031033
     61 HAAA        12.9210    -2.6280     0.8040 h1         1 0DX       0.031033
     62 HAAB        12.8450    -4.3380     0.3780 h1         1 0DX       0.031033
     63 HAB        -12.6080     2.5010     0.0840 h1         1 0DX       0.031033
     64 HABA       -12.5540     3.3340     1.6460 h1         1 0DX       0.031033
     65 HABB       -12.8070     4.2580     0.1670 h1         1 0DX       0.031033
     66 HAI         -2.0890     2.7730    -0.9200 ha         1 0DX       0.162000
     67 HAJ          2.1430    -2.7530     0.5650 ha         1 0DX       0.162000
     68 HAK          6.2020    -1.7210    -1.1590 hc         1 0DX       0.060200
     69 HAKA         6.3490    -1.0350     0.4550 hc         1 0DX       0.060200
     70 HAL         -6.3270     1.0930    -0.8420 hc         1 0DX       0.060200
     71 HALA        -6.1020     1.6000     0.8280 hc         1 0DX       0.060200
     72 HAM          3.7240     4.2100     0.1080 hc         1 0DX       0.059200
     73 HAMA         2.2190     5.1160     0.0040 hc         1 0DX       0.059200
     74 HAN         -2.2580    -5.1660    -0.1220 hc         1 0DX       0.059200
     75 HANA        -3.7480    -4.2310    -0.2130 hc         1 0DX       0.059200
     76 HAO          4.1650    -2.9480    -0.4650 h1         1 0DX       0.045700
     77 HAOA         4.3440    -2.3560     1.1820 h1         1 0DX       0.045700
     78 HAP         -4.3080     2.4020    -1.5010 h1         1 0DX       0.045700
     79 HAPA        -4.1190     2.9550     0.1590 h1         1 0DX       0.045700
     80 HAQ          6.6290    -3.3260     1.4110 h1         1 0DX       0.031950
     81 HAQA         6.3530    -4.0230    -0.1790 h1         1 0DX       0.031950
     82 HAR         -6.3920     3.9990     0.1160 h1         1 0DX       0.031950
     83 HARA        -6.5690     3.4640    -1.5480 h1         1 0DX       0.031950
     84 HAS          4.6910     5.6440    -1.7100 h1         1 0DX       0.031950
     85 HASA         3.2440     6.6440    -1.6800 h1         1 0DX       0.031950
     86 HAT         -3.2120    -6.5460     1.7110 h1         1 0DX       0.031950
     87 HATA        -4.6190    -5.4930     1.7850 h1         1 0DX       0.031950
     88 HAU         10.7120    -5.3590    -0.0600 h1         1 0DX       0.038450
     89 HAUA        10.3380    -4.1830    -1.3260 h1         1 0DX       0.038450
     90 HAV         10.4540    -1.7340    -0.6950 h1         1 0DX       0.038450
     91 HAVA        10.9080    -1.3490     0.9670 h1         1 0DX       0.038450
     92 HAW        -10.3080     1.5810     0.6430 h1         1 0DX       0.038450
     93 HAWA       -10.3750     2.4830     2.1610 h1         1 0DX       0.038450
     94 HAX        -10.9710     4.6350    -1.3290 h1         1 0DX       0.038450
     95 HAXA       -10.6700     2.9020    -1.4990 h1         1 0DX       0.038450
     96 HAY          6.7470     7.7000     1.2390 h1         1 0DX       0.050075
     97 HAYA         6.8480     9.1780     0.2670 h1         1 0DX       0.050075
     98 HAZ          3.5590     8.7410     2.5750 h1         1 0DX       0.050075
     99 HAZA         4.7560     7.4380     2.6390 h1         1 0DX       0.050075
    100 HBA         -7.0050    -9.1070     0.2530 h1         1 0DX       0.050075
    101 HBAA        -6.9680    -7.6990    -0.8220 h1         1 0DX       0.050075
    102 HBB         -5.1090    -7.5740    -2.4090 h1         1 0DX       0.050075
    103 HBBA        -3.9290    -8.8930    -2.3620 h1         1 0DX       0.050075
    104 HBC          8.2840    -5.1410    -0.4410 h1         1 0DX       0.038450
    105 HBCA         8.7430    -4.7520     1.2190 h1         1 0DX       0.038450
    106 HBD          8.8470    -2.3040     1.8450 h1         1 0DX       0.038450
    107 HBDA         8.4980    -1.1210     0.5800 h1         1 0DX       0.038450
    108 HBE         -8.3550     3.7250     1.6120 h1         1 0DX       0.038450
    109 HBEA        -8.0680     1.9890     1.4730 h1         1 0DX       0.038450
    110 HBF         -8.6540     4.1410    -2.0300 h1         1 0DX       0.038450
    111 HBFA        -8.7150     5.0310    -0.5050 h1         1 0DX       0.038450
    112 HBG          5.0080     8.4450    -1.1630 h1         1 0DX       0.040950
    113 HBGA         6.2330     7.1740    -1.0790 h1         1 0DX       0.040950
    114 HBH          2.8690     6.7220     1.3250 h1         1 0DX       0.040950
    115 HBHA         2.9360     8.1490     0.2850 h1         1 0DX       0.040950
    116 HBI         -6.2430    -7.0320     1.3980 h1         1 0DX       0.040950
    117 HBIA        -5.0340    -8.3200     1.4640 h1         1 0DX       0.040950
    118 HBJ         -3.0920    -8.1630    -0.1860 h1         1 0DX       0.040950
    119 HBJA        -3.1030    -6.8060    -1.3170 h1         1 0DX       0.040950
    120 HBK          2.0280     4.5160    -2.4230 h1         1 0DX       0.068200
    121 HBKA         3.5030     3.5800    -2.3010 h1         1 0DX       0.068200
    122 HBL         -3.3920    -3.4540     2.1380 h1         1 0DX       0.068200
    123 HBLA        -1.9210    -4.3990     2.2390 h1         1 0DX       0.068200
    124 HNBM         4.3400    -0.0910    -0.5300 hn         1 0DX       0.480800
    125 HNBN        -4.2750     0.1090     0.1910 hn         1 0DX       0.480800
    126 CAB        -12.2660     3.4130     0.5960 c3         1 0DX       0.153100
@<TRIPOS>BOND
     1     1    50 1   
     2     1    60 1   
     3     1    61 1   
     4     1    62 1   
     5     2    40 2   
     6     3    41 2   
     7     4    42 2   
     8     5    43 2   
     9     6    39 ar  
    10     6    44 ar  
    11     6    66 1   
    12     7    38 ar  
    13     7    45 ar  
    14     7    67 1   
    15     8    12 1   
    16     8    14 1   
    17     8    68 1   
    18     8    69 1   
    19     9    13 1   
    20     9    15 1   
    21     9    70 1   
    22     9    71 1   
    23    10    16 1   
    24    10    34 1   
    25    10    72 1   
    26    10    73 1   
    27    11    17 1   
    28    11    35 1   
    29    11    74 1   
    30    11    75 1   
    31    12    36 1   
    32    12    76 1   
    33    12    77 1   
    34    13    37 1   
    35    13    78 1   
    36    13    79 1   
    37    14    54 1   
    38    14    80 1   
    39    14    81 1   
    40    15    55 1   
    41    15    82 1   
    42    15    83 1   
    43    16    56 1   
    44    16    84 1   
    45    16    85 1   
    46    17    57 1   
    47    17    86 1   
    48    17    87 1   
    49    18    26 1   
    50    18    50 1   
    51    18    88 1   
    52    18    89 1   
    53    19    27 1   
    54    19    50 1   
    55    19    90 1   
    56    19    91 1   
    57    20    28 1   
    58    20    51 1   
    59    20    92 1   
    60    20    93 1   
    61    21    29 1   
    62    21    51 1   
    63    21    94 1   
    64    21    95 1   
    65    22    30 1   
    66    22    52 1   
    67    22    96 1   
    68    22    97 1   
    69    23    31 1   
    70    23    52 1   
    71    23    98 1   
    72    23    99 1   
    73    24    32 1   
    74    24    53 1   
    75    24   100 1   
    76    24   101 1   
    77    25    33 1   
    78    25    53 1   
    79    25   102 1   
    80    25   103 1   
    81    26    54 1   
    82    26   104 1   
    83    26   105 1   
    84    27    54 1   
    85    27   106 1   
    86    27   107 1   
    87    28    55 1   
    88    28   108 1   
    89    28   109 1   
    90    29    55 1   
    91    29   110 1   
    92    29   111 1   
    93    30    56 1   
    94    30   112 1   
    95    30   113 1   
    96    31    56 1   
    97    31   114 1   
    98    31   115 1   
    99    32    57 1   
   100    32   116 1   
   101    32   117 1   
   102    33    57 1   
   103    33   118 1   
   104    33   119 1   
   105    34    58 1   
   106    34   120 1   
   107    34   121 1   
   108    35    59 1   
   109    35   122 1   
   110    35   123 1   
   111    36    38 1   
   112    36   124 1   
   113    37    39 1   
   114    37   125 1   
   115    38    46 ar  
   116    39    47 ar  
   117    40    44 1   
   118    40    58 1   
   119    41    45 1   
   120    41    59 1   
   121    42    46 1   
   122    42    58 1   
   123    43    47 1   
   124    43    59 1   
   125    44    48 ar  
   126    45    49 ar  
   127    46    48 ar  
   128    47    49 ar  
   129    48    49 ar  
   130    51   126 1   
   131    63   126 1   
   132    64   126 1   
   133    65   126 1   
@<TRIPOS>SUBSTRUCTURE
     1 0DX         1 TEMP              0 ****  ****    0 ROOT
