@<TRIPOS>MOLECULE
0DX
  126   133     1     0     0
SMALL
No Charge or Current Charge


@<TRIPOS>ATOM
      1 CAA         12.7500    -2.7590    -0.0510 c3         1 0DX       0.153100
      2 OAE          0.1350     4.0360    -1.0880 o          1 0DX      -0.527000
      3 OAF         -0.1490    -4.1110     1.0430 o          1 0DX      -0.527000
      4 OAG          3.8250     1.3500    -1.2280 o          1 0DX      -0.569000
      5 OAH         -3.8400    -1.4260     1.1810 o          1 0DX      -0.569000
      6 CAI         -1.5480     1.9440    -0.2060 ca         1 0DX      -0.111500
      7 CAJ          1.5330    -2.0200     0.1600 ca         1 0DX      -0.111500
      8 CAK          6.0230    -1.9790    -0.1670 c3         1 0DX      -0.096900
      9 CAL         -6.0350     1.9110     0.1260 c3         1 0DX      -0.096900
     10 CAM          3.4640     4.6780    -0.5170 c3         1 0DX      -0.094900
     11 CAN         -3.4780    -4.7550     0.4710 c3         1 0DX      -0.094900
     12 CAO          4.5550    -2.1430     0.2620 c3         1 0DX       0.224300
     13 CAP         -4.5690     2.0660    -0.3120 c3         1 0DX       0.224300
     14 CAQ          6.9660    -2.9290     0.6020 c3         1 0DX       0.173800
     15 CAR         -6.9770     2.8650    -0.6400 c3         1 0DX       0.173800
     16 CAS          4.3040     5.8630    -1.0410 c3         1 0DX       0.172300
     17 CAT         -4.3170    -5.9400     0.9950 c3         1 0DX       0.172300
     18 CAU         10.6550    -4.0450     0.2400 c6         1 0DX       0.163550
     19 CAV         10.5460    -1.6440    -0.2180 c6         1 0DX       0.163550
     20 CAW        -10.3520     2.6800     1.2880 c6         1 0DX       0.163550
     21 CAX        -10.8100     3.2150    -1.0550 c6         1 0DX       0.163550
     22 CAY          6.8340     8.3270     0.5200 c6         1 0DX       0.152850
     23 CAZ          5.0430     8.0200     2.1000 c6         1 0DX       0.152850
     24 CBA         -6.8430    -8.4080    -0.5660 c6         1 0DX       0.152850
     25 CBB         -5.0510    -8.1000    -2.1450 c6         1 0DX       0.152850
     26 CBC          9.1820    -4.0110     0.7620 c6         1 0DX       0.164050
     27 CBD          9.0710    -1.6100     0.2980 c6         1 0DX       0.164050
     28 CBE         -8.8250     2.9170     1.0460 c6         1 0DX       0.164050
     29 CBF         -9.2850     3.4580    -1.2970 c6         1 0DX       0.164050
     30 CBG          6.0240     7.5790    -0.5810 c6         1 0DX       0.126300
     31 CBH          4.1960     7.2600     1.0350 c6         1 0DX       0.126300
     32 CBI         -6.0350    -7.6580     0.5350 c6         1 0DX       0.126300
     33 CBJ         -4.2060    -7.3380    -1.0800 c6         1 0DX       0.126300
     34 CBK          2.8240     3.8590    -1.6560 c3         1 0DX       0.091000
     35 CBL         -2.8380    -3.9350     1.6100 c3         1 0DX       0.091000
     36 NBM          3.7000    -1.2190    -0.4950 nu         1 0DX      -0.954700
     37 NBN         -3.7150     1.1430     0.4480 nu         1 0DX      -0.954700
     38 CBO          2.3460    -0.9680    -0.2780 ca         1 0DX       0.404000
     39 CBP         -2.3610     0.8920     0.2310 ca         1 0DX       0.404000
     40 CBQ          0.6450     2.9330    -0.9220 c          1 0DX       0.584600
     41 CBR         -0.6590    -3.0090     0.8760 c          1 0DX       0.584600
     42 CBS          2.6300     1.4730    -0.9850 c          1 0DX       0.608100
     43 CBT         -2.6440    -1.5490     0.9390 c          1 0DX       0.608100
     44 CBU         -0.1740     1.7650    -0.4510 ca         1 0DX      -0.094600
     45 CBV          0.1600    -1.8410     0.4050 ca         1 0DX      -0.094600
     46 CBW          1.7850     0.3130    -0.4980 ca         1 0DX      -0.254600
     47 CBX         -1.7990    -0.3890     0.4510 ca         1 0DX      -0.254600
     48 CBY          0.4010     0.4990    -0.2500 ca         1 0DX       0.005000
     49 CBZ         -0.4160    -0.5740     0.2030 ca         1 0DX       0.005000
     50 NCA         11.3480    -2.7340     0.4170 n3         1 0DX      -0.717600
     51 NCB        -11.2070     3.4800     0.3610 n3         1 0DX      -0.717600
     52 OCC          5.9340     8.9630     1.4580 os         1 0DX      -0.450000
     53 OCD         -5.9420    -9.0430    -1.5040 os         1 0DX      -0.450000
     54 NCE          8.3710    -2.9250     0.1270 n3         1 0DX      -0.720100
     55 NCF         -8.4210     2.6560    -0.3740 n3         1 0DX      -0.720100
     56 NCG          5.0600     6.5950     0.0040 n3         1 0DX      -0.715600
     57 NCH         -5.0710    -6.6730    -0.0500 n3         1 0DX      -0.715600
     58 NCI          2.0050     2.7160    -1.1540 n          1 0DX      -0.362400
     59 NCJ         -2.0200    -2.7910     1.1070 n          1 0DX      -0.362400
     60 HAA         12.8010    -2.9630    -1.1290 h1         1 0DX       0.031033
     61 HAAA        13.2400    -1.7960     0.1410 h1         1 0DX       0.031033
     62 HAAB        13.3190    -3.5390     0.4740 h1         1 0DX       0.031033
     63 HAB        -12.9380     2.2340     0.4140 h1         1 0DX       0.031033
     64 HABA       -12.9150     3.5310     1.6330 h1         1 0DX       0.031033
     65 HABB       -13.2470     3.9190    -0.0680 h1         1 0DX       0.031033
     66 HAI         -1.9920     2.9240    -0.3520 ha         1 0DX       0.144000
     67 HAJ          1.9770    -2.9990     0.3060 ha         1 0DX       0.144000
     68 HAK          6.1100    -2.1810    -1.2420 hc         1 0DX       0.060200
     69 HAKA         6.3260    -0.9400    -0.0000 hc         1 0DX       0.060200
     70 HAL         -6.3590     0.8780    -0.0440 hc         1 0DX       0.060200
     71 HALA        -6.1040     2.1080     1.2020 hc         1 0DX       0.060200
     72 HAM          4.1060     4.0210     0.0830 hc         1 0DX       0.059200
     73 HAMA         2.6690     5.0470     0.1390 hc         1 0DX       0.059200
     74 HAN         -2.6810    -5.1230    -0.1850 hc         1 0DX       0.059200
     75 HANA        -4.1190    -4.0990    -0.1290 hc         1 0DX       0.059200
     76 HAO          4.2420    -3.1820     0.0900 h1         1 0DX       0.045700
     77 HAOA         4.4700    -1.9340     1.3380 h1         1 0DX       0.045700
     78 HAP         -4.4900     1.8500    -1.3860 h1         1 0DX       0.045700
     79 HAPA        -4.2520     3.1050    -0.1470 h1         1 0DX       0.045700
     80 HAQ          6.9300    -2.6720     1.6700 h1         1 0DX       0.031950
     81 HAQA         6.5610    -3.9460     0.5050 h1         1 0DX       0.031950
     82 HAR         -6.6990     3.9020    -0.4030 h1         1 0DX       0.031950
     83 HARA        -6.7900     2.7220    -1.7130 h1         1 0DX       0.031950
     84 HAS          5.0130     5.4640    -1.7800 h1         1 0DX       0.031950
     85 HASA         3.6400     6.5560    -1.5770 h1         1 0DX       0.031950
     86 HAT         -3.6530    -6.6310     1.5320 h1         1 0DX       0.031950
     87 HATA        -5.0270    -5.5410     1.7330 h1         1 0DX       0.031950
     88 HAU         11.1980    -4.8380     0.7750 h1         1 0DX       0.038450
     89 HAUA        10.6420    -4.3260    -0.8240 h1         1 0DX       0.038450
     90 HAV         10.5290    -1.7760    -1.3110 h1         1 0DX       0.038450
     91 HAVA        11.0090    -0.6660    -0.0210 h1         1 0DX       0.038450
     92 HAW        -10.5610     1.6070     1.1630 h1         1 0DX       0.038450
     93 HAWA       -10.5840     2.9320     2.3330 h1         1 0DX       0.038450
     94 HAX        -11.3800     3.8620    -1.7380 h1         1 0DX       0.038450
     95 HAXA       -11.0450     2.1750    -1.3260 h1         1 0DX       0.038450
     96 HAY          7.4800     7.6190     1.0580 h1         1 0DX       0.050075
     97 HAYA         7.4740     9.0930     0.0590 h1         1 0DX       0.050075
     98 HAZ          4.3800     8.5620     2.7880 h1         1 0DX       0.050075
     99 HAZA         5.6350     7.3040     2.6880 h1         1 0DX       0.050075
    100 HBA         -7.4830    -9.1730    -0.1060 h1         1 0DX       0.050075
    101 HBAA        -7.4890    -7.7000    -1.1060 h1         1 0DX       0.050075
    102 HBB         -5.6430    -7.3850    -2.7350 h1         1 0DX       0.050075
    103 HBBA        -4.3860    -8.6420    -2.8320 h1         1 0DX       0.050075
    104 HBC          8.7220    -4.9910     0.5680 h1         1 0DX       0.038450
    105 HBCA         9.2020    -3.8780     1.8540 h1         1 0DX       0.038450
    106 HBD          9.0790    -1.3220     1.3600 h1         1 0DX       0.038450
    107 HBDA         8.5440    -0.8140    -0.2470 h1         1 0DX       0.038450
    108 HBE         -8.5840     3.9540     1.3230 h1         1 0DX       0.038450
    109 HBEA        -8.2720     2.2630     1.7350 h1         1 0DX       0.038450
    110 HBF         -9.0550     3.2100    -2.3430 h1         1 0DX       0.038450
    111 HBFA        -9.0780     4.5310    -1.1690 h1         1 0DX       0.038450
    112 HBG          5.4870     8.3240    -1.1880 h1         1 0DX       0.040950
    113 HBGA         6.7310     7.0690    -1.2510 h1         1 0DX       0.040950
    114 HBH          3.5760     6.5210     1.5610 h1         1 0DX       0.040950
    115 HBHA         3.5110     7.9740     0.5550 h1         1 0DX       0.040950
    116 HBI         -6.7430    -7.1480     1.2030 h1         1 0DX       0.040950
    117 HBIA        -5.4980    -8.4010     1.1420 h1         1 0DX       0.040950
    118 HBJ         -3.5210    -8.0520    -0.5990 h1         1 0DX       0.040950
    119 HBJA        -3.5860    -6.5990    -1.6060 h1         1 0DX       0.040950
    120 HBK          2.2020     4.5230    -2.2700 h1         1 0DX       0.068200
    121 HBKA         3.6140     3.4910    -2.3240 h1         1 0DX       0.068200
    122 HBL         -3.6290    -3.5670     2.2770 h1         1 0DX       0.068200
    123 HBLA        -2.2160    -4.5980     2.2240 h1         1 0DX       0.068200
    124 HNBM         4.1760    -0.3890    -0.8730 hn         1 0DX       0.536000
    125 HNBN        -4.1910     0.3120     0.8230 hn         1 0DX       0.536000
    126 CAB        -12.6530     3.2790     0.5970 c3         1 0DX       0.153100
@<TRIPOS>BOND
     1     1    50 1   
     2     1    60 1   
     3     1    61 1   
     4     1    62 1   
     5     2    40 2   
     6     3    41 2   
     7     4    42 2   
     8     5    43 2   
     9     6    39 ar  
    10     6    44 ar  
    11     6    66 1   
    12     7    38 ar  
    13     7    45 ar  
    14     7    67 1   
    15     8    12 1   
    16     8    14 1   
    17     8    68 1   
    18     8    69 1   
    19     9    13 1   
    20     9    15 1   
    21     9    70 1   
    22     9    71 1   
    23    10    16 1   
    24    10    34 1   
    25    10    72 1   
    26    10    73 1   
    27    11    17 1   
    28    11    35 1   
    29    11    74 1   
    30    11    75 1   
    31    12    36 1   
    32    12    76 1   
    33    12    77 1   
    34    13    37 1   
    35    13    78 1   
    36    13    79 1   
    37    14    54 1   
    38    14    80 1   
    39    14    81 1   
    40    15    55 1   
    41    15    82 1   
    42    15    83 1   
    43    16    56 1   
    44    16    84 1   
    45    16    85 1   
    46    17    57 1   
    47    17    86 1   
    48    17    87 1   
    49    18    26 1   
    50    18    50 1   
    51    18    88 1   
    52    18    89 1   
    53    19    27 1   
    54    19    50 1   
    55    19    90 1   
    56    19    91 1   
    57    20    28 1   
    58    20    51 1   
    59    20    92 1   
    60    20    93 1   
    61    21    29 1   
    62    21    51 1   
    63    21    94 1   
    64    21    95 1   
    65    22    30 1   
    66    22    52 1   
    67    22    96 1   
    68    22    97 1   
    69    23    31 1   
    70    23    52 1   
    71    23    98 1   
    72    23    99 1   
    73    24    32 1   
    74    24    53 1   
    75    24   100 1   
    76    24   101 1   
    77    25    33 1   
    78    25    53 1   
    79    25   102 1   
    80    25   103 1   
    81    26    54 1   
    82    26   104 1   
    83    26   105 1   
    84    27    54 1   
    85    27   106 1   
    86    27   107 1   
    87    28    55 1   
    88    28   108 1   
    89    28   109 1   
    90    29    55 1   
    91    29   110 1   
    92    29   111 1   
    93    30    56 1   
    94    30   112 1   
    95    30   113 1   
    96    31    56 1   
    97    31   114 1   
    98    31   115 1   
    99    32    57 1   
   100    32   116 1   
   101    32   117 1   
   102    33    57 1   
   103    33   118 1   
   104    33   119 1   
   105    34    58 1   
   106    34   120 1   
   107    34   121 1   
   108    35    59 1   
   109    35   122 1   
   110    35   123 1   
   111    36    38 1   
   112    36   124 1   
   113    37    39 1   
   114    37   125 1   
   115    38    46 ar  
   116    39    47 ar  
   117    40    44 1   
   118    40    58 1   
   119    41    45 1   
   120    41    59 1   
   121    42    46 1   
   122    42    58 1   
   123    43    47 1   
   124    43    59 1   
   125    44    48 ar  
   126    45    49 ar  
   127    46    48 ar  
   128    47    49 ar  
   129    48    49 ar  
   130    51   126 1   
   131    63   126 1   
   132    64   126 1   
   133    65   126 1   
@<TRIPOS>SUBSTRUCTURE
     1 0DX         1 TEMP              0 ****  ****    0 ROOT
