@<TRIPOS>MOLECULE
0DY
   55    55     1     0     0
SMALL
abcg2


@<TRIPOS>ATOM
      1 N            5.1200    -1.5280    -0.4660 ns         1 0DY      -0.395400
      2 OH           5.9040    -2.3930    -1.1640 oh         1 0DY      -0.415100
      3 C1           4.6390    -0.4230    -1.0580 c          1 0DY       0.609100
      4 O1           4.9700    -0.0500    -2.1670 o          1 0DY      -0.538100
      5 CA           3.6430     0.3320    -0.1880 c3         1 0DY      -0.219700
      6 CB           4.0550     1.8000    -0.0600 c3         1 0DY      -0.055400
      7 CG           3.0960     2.6700     0.7550 c3         1 0DY      -0.066700
      8 CD1          2.8090     2.0930     2.1380 c3         1 0DY      -0.086100
      9 CD2          3.6730     4.0780     0.8690 c3         1 0DY      -0.086100
     10 C            2.2680     0.1920    -0.8280 c          1 0DY       0.613100
     11 O            1.9500     0.7980    -1.8350 o          1 0DY      -0.559100
     12 N1           1.4470    -0.6810    -0.2160 ns         1 0DY      -0.488900
     13 CA1          0.0790    -0.8330    -0.6320 c3         1 0DY       0.041700
     14 C2          -0.7240     0.4340    -0.3230 c          1 0DY       0.586100
     15 O2          -0.4480     1.1450     0.6280 o          1 0DY      -0.605100
     16 CB1         -0.5490    -2.0120     0.1060 c3         1 0DY      -0.179400
     17 CG1          0.1140    -3.3220    -0.2840 c          1 0DY       0.603100
     18 OD1          0.3200    -3.6060    -1.4550 o          1 0DY      -0.588100
     19 ND2          0.4310    -4.1250     0.7380 nt         1 0DY      -0.611000
     20 N2          -1.7600     0.6360    -1.1490 ns         1 0DY      -0.491900
     21 CB2         -2.7710     1.6510    -0.9580 c3         1 0DY       0.142300
     22 CG2         -4.0560     1.0970    -0.3920 ca         1 0DY      -0.073300
     23 CD11        -4.0480     0.3350     0.7760 ca         1 0DY      -0.145000
     24 CE1         -5.2480    -0.1470     1.2790 ca         1 0DY      -0.073000
     25 CD21        -5.2570     1.3600    -1.0330 ca         1 0DY      -0.169000
     26 CE2         -6.4750     0.8800    -0.5300 ca         1 0DY       0.291000
     27 CZ          -6.4510     0.1170     0.6420 ca         1 0DY      -0.175000
     28 NE2         -7.6530     1.1070    -1.2080 nv         1 0DY      -1.072000
     29 HN           4.7660    -1.8810     0.4120 hn         1 0DY       0.331500
     30 HOH          6.8180    -2.1610    -0.9530 ho         1 0DY       0.441000
     31 HA           3.6260    -0.1180     0.8080 hc         1 0DY       0.052700
     32 HB1          5.0440     1.8280     0.4080 hc         1 0DY       0.061200
     33 HB2          4.1710     2.2270    -1.0580 hc         1 0DY       0.061200
     34 HG           2.1460     2.7370     0.2160 hc         1 0DY       0.070700
     35 HD11         3.7340     1.8780     2.6780 hc         1 0DY       0.031867
     36 HD12         2.2310     2.7980     2.7370 hc         1 0DY       0.031867
     37 HD13         2.2250     1.1730     2.0840 hc         1 0DY       0.031867
     38 HD21         3.8890     4.5050    -0.1120 hc         1 0DY       0.031867
     39 HD22         2.9780     4.7480     1.3770 hc         1 0DY       0.031867
     40 HD23         4.6050     4.0710     1.4410 hc         1 0DY       0.031867
     41 H            1.7070    -1.0350     0.6900 hn         1 0DY       0.310500
     42 HA1          0.0490    -1.0360    -1.7050 h1         1 0DY       0.107700
     43 HB21        -0.5130    -1.8440     1.1850 hc         1 0DY       0.072200
     44 HB3         -1.6060    -2.0870    -0.1610 hc         1 0DY       0.072200
     45 HD24         0.2600    -3.8640     1.6940 hn         1 0DY       0.315500
     46 HD25         0.8500    -5.0250     0.5700 hn         1 0DY       0.315500
     47 HN1         -1.9010    -0.0130    -1.9070 hn         1 0DY       0.321500
     48 HB11        -2.3620     2.4140    -0.2950 h1         1 0DY       0.068700
     49 HB22        -2.9640     2.1370    -1.9160 h1         1 0DY       0.068700
     50 HD14        -3.1210     0.1310     1.2970 ha         1 0DY       0.117000
     51 HC11        -5.2510    -0.7360     2.1880 ha         1 0DY       0.109000
     52 HC21        -5.2590     1.9480    -1.9440 ha         1 0DY       0.111000
     53 HCZ1        -7.3780    -0.2670     1.0530 ha         1 0DY       0.112000
     54 HE21        -7.6660     1.9230    -1.8000 hn         1 0DY       0.448000
     55 HE22        -8.4940     1.0340    -0.6590 hn         1 0DY       0.448000
@<TRIPOS>BOND
     1     1     2 1   
     2     1     3 1   
     3     1    29 1   
     4     2    30 1   
     5     3     4 2   
     6     3     5 1   
     7     5     6 1   
     8     5    10 1   
     9     5    31 1   
    10     6     7 1   
    11     6    32 1   
    12     6    33 1   
    13     7     8 1   
    14     7     9 1   
    15     7    34 1   
    16     8    35 1   
    17     8    36 1   
    18     8    37 1   
    19     9    38 1   
    20     9    39 1   
    21     9    40 1   
    22    10    11 2   
    23    10    12 1   
    24    12    13 1   
    25    12    41 1   
    26    13    14 1   
    27    13    16 1   
    28    13    42 1   
    29    14    15 2   
    30    14    20 1   
    31    16    17 1   
    32    16    43 1   
    33    16    44 1   
    34    17    18 2   
    35    17    19 1   
    36    19    45 1   
    37    19    46 1   
    38    20    21 1   
    39    20    47 1   
    40    21    22 1   
    41    21    48 1   
    42    21    49 1   
    43    22    23 ar  
    44    22    25 ar  
    45    23    24 ar  
    46    23    50 1   
    47    24    27 ar  
    48    24    51 1   
    49    25    26 ar  
    50    25    52 1   
    51    26    27 ar  
    52    26    28 1   
    53    27    53 1   
    54    28    54 1   
    55    28    55 1   
@<TRIPOS>SUBSTRUCTURE
     1 0DY         1 TEMP              0 ****  ****    0 ROOT
