@<TRIPOS>MOLECULE
0DY
   55    55     1     0     0
SMALL
No Charge or Current Charge


@<TRIPOS>ATOM
      1 N            4.3290    -2.1640     1.0140 ns         1 0DY      -0.395400
      2 OH           4.7750    -3.5270     0.8200 oh         1 0DY      -0.415100
      3 C1           4.3850    -1.2380    -0.0220 c          1 0DY       0.609100
      4 O1           5.0210    -1.4470    -1.0460 o          1 0DY      -0.538100
      5 CA           3.6160     0.0590     0.2290 c3         1 0DY      -0.219700
      6 CB           4.5350     1.3160     0.1520 c3         1 0DY      -0.055400
      7 CG           3.8230     2.6820     0.3690 c3         1 0DY      -0.066700
      8 CD1          3.1360     2.7940     1.7520 c3         1 0DY      -0.086100
      9 CD2          4.8100     3.8530     0.1560 c3         1 0DY      -0.086100
     10 C            2.4470     0.1110    -0.7490 c          1 0DY       0.613100
     11 O            2.5900     0.2320    -1.9550 o          1 0DY      -0.559100
     12 N1           1.2010     0.0350    -0.1650 ns         1 0DY      -0.488900
     13 CA1         -0.0880     0.0840    -0.8900 c3         1 0DY       0.041700
     14 C2          -1.1210     0.9320    -0.0890 c          1 0DY       0.586100
     15 O2          -0.9470     1.2700     1.0760 o          1 0DY      -0.605100
     16 CB1         -0.6200    -1.3480    -1.1740 c3         1 0DY      -0.179400
     17 CG1          0.3060    -2.1460    -2.0910 c          1 0DY       0.603100
     18 OD1          0.3190    -2.0130    -3.3020 o          1 0DY      -0.588100
     19 ND2          1.1080    -3.0510    -1.4920 nt         1 0DY      -0.611000
     20 N2          -2.2560     1.2840    -0.7880 ns         1 0DY      -0.491900
     21 CB2         -3.3830     2.0300    -0.2250 c3         1 0DY       0.142300
     22 CG2         -4.4870     1.0910     0.2430 ca         1 0DY      -0.073300
     23 CD11        -4.4590     0.5560     1.5450 ca         1 0DY      -0.145000
     24 CE1         -5.4730    -0.3160     1.9760 ca         1 0DY      -0.073000
     25 CD21        -5.5400     0.7400    -0.6250 ca         1 0DY      -0.169000
     26 CE2         -6.5540    -0.1310    -0.1960 ca         1 0DY       0.291000
     27 CZ          -6.5200    -0.6580     1.1030 ca         1 0DY      -0.175000
     28 NE2         -7.5740    -0.4660    -1.0440 nv         1 0DY      -1.072000
     29 HN           3.6940    -2.0070     1.7960 hn         1 0DY       0.331500
     30 HOH          5.3770    -3.6860     1.5850 ho         1 0DY       0.441000
     31 HA           3.2050    -0.0010     1.2430 hc         1 0DY       0.052700
     32 HB1          5.3400     1.2110     0.8910 hc         1 0DY       0.061200
     33 HB2          5.0240     1.3320    -0.8310 hc         1 0DY       0.061200
     34 HG           3.0420     2.7860    -0.3950 hc         1 0DY       0.070700
     35 HD11         3.8560     2.6260     2.5610 hc         1 0DY       0.031867
     36 HD12         2.6980     3.7910     1.8860 hc         1 0DY       0.031867
     37 HD13         2.3240     2.0650     1.8530 hc         1 0DY       0.031867
     38 HD21         5.2550     3.8090    -0.8460 hc         1 0DY       0.031867
     39 HD22         4.2950     4.8170     0.2520 hc         1 0DY       0.031867
     40 HD23         5.6200     3.8220     0.8940 hc         1 0DY       0.031867
     41 H            1.1720     0.0060     0.8490 hn         1 0DY       0.310500
     42 HA1          0.0580     0.6050    -1.8470 h1         1 0DY       0.107700
     43 HB21        -0.7240    -1.8630    -0.2120 hc         1 0DY       0.072200
     44 HB3         -1.5990    -1.2740    -1.6620 hc         1 0DY       0.072200
     45 HD24         1.0800    -3.1700    -0.4900 hn         1 0DY       0.315500
     46 HD25         1.7310    -3.6090    -2.0570 hn         1 0DY       0.315500
     47 HN1         -2.3260     0.9640    -1.7470 hn         1 0DY       0.321500
     48 HB11        -3.0410     2.6510     0.6130 h1         1 0DY       0.068700
     49 HB22        -3.7770     2.7070    -0.9950 h1         1 0DY       0.068700
     50 HD14        -3.6480     0.8150     2.2230 ha         1 0DY       0.117000
     51 HC11        -5.4460    -0.7270     2.9830 ha         1 0DY       0.109000
     52 HC21        -5.5670     1.1440    -1.6330 ha         1 0DY       0.111000
     53 HCZ1        -7.3020    -1.3340     1.4400 ha         1 0DY       0.112000
     54 HE21        -7.6780     0.0240    -1.9300 hn         1 0DY       0.448000
     55 HE22        -8.3800    -0.9790    -0.6910 hn         1 0DY       0.448000
@<TRIPOS>BOND
     1     1     2 1   
     2     1     3 1   
     3     1    29 1   
     4     2    30 1   
     5     3     4 2   
     6     3     5 1   
     7     5     6 1   
     8     5    10 1   
     9     5    31 1   
    10     6     7 1   
    11     6    32 1   
    12     6    33 1   
    13     7     8 1   
    14     7     9 1   
    15     7    34 1   
    16     8    35 1   
    17     8    36 1   
    18     8    37 1   
    19     9    38 1   
    20     9    39 1   
    21     9    40 1   
    22    10    11 2   
    23    10    12 1   
    24    12    13 1   
    25    12    41 1   
    26    13    14 1   
    27    13    16 1   
    28    13    42 1   
    29    14    15 2   
    30    14    20 1   
    31    16    17 1   
    32    16    43 1   
    33    16    44 1   
    34    17    18 2   
    35    17    19 1   
    36    19    45 1   
    37    19    46 1   
    38    20    21 1   
    39    20    47 1   
    40    21    22 1   
    41    21    48 1   
    42    21    49 1   
    43    22    23 ar  
    44    22    25 ar  
    45    23    24 ar  
    46    23    50 1   
    47    24    27 ar  
    48    24    51 1   
    49    25    26 ar  
    50    25    52 1   
    51    26    27 ar  
    52    26    28 1   
    53    27    53 1   
    54    28    54 1   
    55    28    55 1   
@<TRIPOS>SUBSTRUCTURE
     1 0DY         1 TEMP              0 ****  ****    0 ROOT
