@<TRIPOS>MOLECULE
0E0
   39    41     1     0     0
SMALL
bcc


@<TRIPOS>ATOM
      1 C1           0.3100     0.8400     0.0590 cc         1 0E0       0.074400
      2 N2           1.2150     1.8690     0.0000 ns         1 0E0      -0.448100
      3 C3           2.5740     1.7390    -0.0460 c          1 0E0       0.716100
      4 O4           3.3030     2.7230    -0.0880 o          1 0E0      -0.630500
      5 C5           3.0510     0.3560    -0.0520 ca         1 0E0      -0.168600
      6 C6           2.1400    -0.7150     0.0090 ca         1 0E0       0.029200
      7 C7           0.7300    -0.4420     0.0880 cd         1 0E0      -0.198400
      8 C8          -0.2780    -1.5510     0.1910 c6         1 0E0       0.196600
      9 O9          -1.5460    -1.0830     0.5630 os         1 0E0      -0.401600
     10 C10         -1.9970    -0.0040    -0.2300 c6         1 0E0       0.153100
     11 C11         -3.5030     0.1960     0.0130 c3         1 0E0      -0.035000
     12 C12         -3.9660     1.4280    -0.7690 c3         1 0E0      -0.081100
     13 C13         -4.2130    -1.0500    -0.5320 c3         1 0E0       0.144400
     14 O14         -5.6060    -0.9220    -0.3580 oh         1 0E0      -0.599800
     15 C15         -3.8160     0.3790     1.5000 c3         1 0E0      -0.081100
     16 C16         -1.1360     1.2210     0.0640 c6         1 0E0      -0.077200
     17 C17          2.6510    -2.0240    -0.0180 ca         1 0E0      -0.149000
     18 C18          4.0080    -2.2490    -0.0940 ca         1 0E0      -0.092000
     19 C19          4.9060    -1.1790    -0.1450 ca         1 0E0      -0.153000
     20 C20          4.4260     0.1120    -0.1250 ca         1 0E0      -0.061000
     21 H2          -0.3260    -2.1060    -0.7580 h1         1 0E0       0.052700
     22 H3           0.0220    -2.2680     0.9600 h1         1 0E0       0.052700
     23 H4          -1.8620    -0.2540    -1.2960 h1         1 0E0       0.037700
     24 H5          -3.6890     1.3590    -1.8240 hc         1 0E0       0.040533
     25 H6          -5.0490     1.5330    -0.7160 hc         1 0E0       0.040533
     26 H7          -3.5330     2.3460    -0.3690 hc         1 0E0       0.040533
     27 H8          -3.9580    -1.1580    -1.5970 h1         1 0E0       0.024200
     28 H9          -3.8340    -1.9410    -0.0190 h1         1 0E0       0.024200
     29 H10         -6.0180    -1.7300    -0.6750 ho         1 0E0       0.404000
     30 H11         -3.2550     1.2120     1.9270 hc         1 0E0       0.040533
     31 H12         -4.8730     0.6020     1.6420 hc         1 0E0       0.040533
     32 H13         -3.5830    -0.5130     2.0810 hc         1 0E0       0.040533
     33 H14         -1.3960     1.6700     1.0280 hc         1 0E0       0.070200
     34 H15         -1.3050     1.9870    -0.6970 hc         1 0E0       0.070200
     35 H16          1.9780    -2.8700     0.0150 ha         1 0E0       0.132000
     36 H17          4.3790    -3.2660    -0.1170 ha         1 0E0       0.132000
     37 H18          5.9700    -1.3640    -0.2030 ha         1 0E0       0.137000
     38 H19          5.1120     0.9470    -0.1670 ha         1 0E0       0.154000
     39 H20          0.8580     2.8150    -0.0140 hn         1 0E0       0.325500
@<TRIPOS>BOND
     1     1     2 1   
     2     1     7 2   
     3     1    16 1   
     4     2     3 1   
     5     2    39 1   
     6     3     4 2   
     7     3     5 1   
     8     5     6 ar  
     9     5    20 ar  
    10     6     7 1   
    11     6    17 ar  
    12     7     8 1   
    13     8     9 1   
    14     8    21 1   
    15     8    22 1   
    16     9    10 1   
    17    10    11 1   
    18    10    16 1   
    19    10    23 1   
    20    11    12 1   
    21    11    13 1   
    22    11    15 1   
    23    12    24 1   
    24    12    25 1   
    25    12    26 1   
    26    13    14 1   
    27    13    27 1   
    28    13    28 1   
    29    14    29 1   
    30    15    30 1   
    31    15    31 1   
    32    15    32 1   
    33    16    33 1   
    34    16    34 1   
    35    17    18 ar  
    36    17    35 1   
    37    18    19 ar  
    38    18    36 1   
    39    19    20 ar  
    40    19    37 1   
    41    20    38 1   
@<TRIPOS>SUBSTRUCTURE
     1 0E0         1 TEMP              0 ****  ****    0 ROOT
