@<TRIPOS>MOLECULE
0E0
   39    41     1     0     0
SMALL
No Charge or Current Charge


@<TRIPOS>ATOM
      1 C1           0.3420     0.8300     0.0080 cc         1 0E0       0.074400
      2 N2           1.2460     1.8760    -0.0070 ns         1 0E0      -0.381100
      3 C3           2.6110     1.7530    -0.0200 c          1 0E0       0.573600
      4 O4           3.3310     2.7410    -0.0270 o          1 0E0      -0.555000
      5 C5           3.1400     0.3470    -0.0250 ca         1 0E0      -0.168600
      6 C6           2.2380    -0.7410    -0.0090 ca         1 0E0       0.029200
      7 C7           0.7820    -0.4830     0.0190 cd         1 0E0      -0.198400
      8 C8          -0.2620    -1.5950     0.0400 c6         1 0E0       0.219800
      9 O9          -1.5530    -1.1050     0.4580 os         1 0E0      -0.448000
     10 C10         -2.0260     0.0330    -0.2870 c6         1 0E0       0.176300
     11 C11         -3.5670     0.2270     0.0110 c3         1 0E0      -0.035000
     12 C12         -4.1100     1.4550    -0.7810 c3         1 0E0      -0.081100
     13 C13         -4.3130    -1.0640    -0.4680 c3         1 0E0       0.167600
     14 O14         -5.7390    -0.9680    -0.3060 oh         1 0E0      -0.662000
     15 C15         -3.8490     0.4520     1.5300 c3         1 0E0      -0.081100
     16 C16         -1.1090     1.2440     0.0300 c6         1 0E0      -0.077200
     17 C17          2.7490    -2.0580    -0.0250 ca         1 0E0      -0.131000
     18 C18          4.1340    -2.2880    -0.0510 ca         1 0E0      -0.074000
     19 C19          5.0250    -1.2050    -0.0620 ca         1 0E0      -0.135000
     20 C20          4.5320     0.1090    -0.0500 ca         1 0E0      -0.043000
     21 H2          -0.3570    -2.0410    -0.9610 h1         1 0E0       0.052700
     22 H3           0.0360    -2.3920     0.7350 h1         1 0E0       0.052700
     23 H4          -1.9230    -0.1990    -1.3580 h1         1 0E0       0.037700
     24 H5          -3.9280     1.3370    -1.8570 hc         1 0E0       0.040533
     25 H6          -5.1890     1.5840    -0.6330 hc         1 0E0       0.040533
     26 H7          -3.6300     2.3850    -0.4550 hc         1 0E0       0.040533
     27 H8          -4.0740    -1.2410    -1.5250 h1         1 0E0       0.024200
     28 H9          -3.9400    -1.9290     0.0960 h1         1 0E0       0.024200
     29 H10         -6.1190    -1.8190    -0.6180 ho         1 0E0       0.443000
     30 H11         -3.3740     1.3670     1.9000 hc         1 0E0       0.040533
     31 H12         -4.9230     0.5510     1.7230 hc         1 0E0       0.040533
     32 H13         -3.4790    -0.3890     2.1300 hc         1 0E0       0.040533
     33 H14         -1.3490     1.6640     1.0140 hc         1 0E0       0.070200
     34 H15         -1.2920     2.0410    -0.7030 hc         1 0E0       0.070200
     35 H16          2.0820    -2.9150    -0.0230 ha         1 0E0       0.114000
     36 H17          4.5160    -3.3070    -0.0630 ha         1 0E0       0.114000
     37 H18          6.0980    -1.3830    -0.0820 ha         1 0E0       0.119000
     38 H19          5.2330     0.9420    -0.0620 ha         1 0E0       0.136000
     39 H20          0.9040     2.8280    -0.0050 hn         1 0E0       0.325500
@<TRIPOS>BOND
     1     1     2 1   
     2     1     7 2   
     3     1    16 1   
     4     2     3 1   
     5     2    39 1   
     6     3     4 2   
     7     3     5 1   
     8     5     6 ar  
     9     5    20 ar  
    10     6     7 1   
    11     6    17 ar  
    12     7     8 1   
    13     8     9 1   
    14     8    21 1   
    15     8    22 1   
    16     9    10 1   
    17    10    11 1   
    18    10    16 1   
    19    10    23 1   
    20    11    12 1   
    21    11    13 1   
    22    11    15 1   
    23    12    24 1   
    24    12    25 1   
    25    12    26 1   
    26    13    14 1   
    27    13    27 1   
    28    13    28 1   
    29    14    29 1   
    30    15    30 1   
    31    15    31 1   
    32    15    32 1   
    33    16    33 1   
    34    16    34 1   
    35    17    18 ar  
    36    17    35 1   
    37    18    19 ar  
    38    18    36 1   
    39    19    20 ar  
    40    19    37 1   
    41    20    38 1   
@<TRIPOS>SUBSTRUCTURE
     1 0E0         1 TEMP              0 ****  ****    0 ROOT
