@<TRIPOS>MOLECULE
0E1
   30    31     1     0     0
SMALL
No Charge or Current Charge


@<TRIPOS>ATOM
      1 C1          -2.7540     0.4260    -0.0050 ca         1 0E1      -0.104000
      2 C2          -4.1260     0.8300    -0.0300 cg         1 0E1       0.341000
      3 N3          -5.2410     1.1760    -0.0520 n1         1 0E1      -0.446000
      4 C4          -1.7250     1.3820    -0.0280 ca         1 0E1       0.005000
      5 C5          -0.3950     0.9250    -0.0010 ca         1 0E1      -0.217300
      6 C6          -0.1520    -0.4600     0.0430 ca         1 0E1       0.438300
      7 N7          -1.1390    -1.3810     0.0660 nb         1 0E1      -0.778000
      8 C8          -2.3950    -0.9310     0.0410 ca         1 0E1       0.629300
      9 O9          -3.2910    -1.9270     0.0670 oh         1 0E1      -0.628300
     10 C10          0.7690     1.9130    -0.0360 c6         1 0E1       0.218900
     11 O11          1.9680     1.2740     0.4490 os         1 0E1      -0.444000
     12 C12          2.3180     0.0580    -0.2400 c6         1 0E1       0.170300
     13 C13          3.7720    -0.3340     0.1890 c3         1 0E1      -0.056700
     14 C14          4.2560    -1.6600    -0.4500 c3         1 0E1      -0.088100
     15 C15          4.8010     0.7890    -0.0970 c3         1 0E1      -0.088100
     16 C16          1.2600    -1.0190     0.0870 c6         1 0E1      -0.166700
     17 H1          -1.9500     2.4480    -0.0670 ha         1 0E1       0.133000
     18 H3           0.9340     2.2650    -1.0650 h1         1 0E1       0.056200
     19 H4           0.5490     2.7850     0.5970 h1         1 0E1       0.056200
     20 H5           2.3150     0.2570    -1.3220 h1         1 0E1       0.039700
     21 H6           3.7720    -0.4910     1.2760 hc         1 0E1       0.060700
     22 H7           3.6280    -2.5030    -0.1410 hc         1 0E1       0.037367
     23 H8           4.2330    -1.5960    -1.5450 hc         1 0E1       0.037367
     24 H9           5.2840    -1.8880    -0.1430 hc         1 0E1       0.037367
     25 H10          4.5410     1.7100     0.4380 hc         1 0E1       0.037367
     26 H11          5.8050     0.4900     0.2290 hc         1 0E1       0.037367
     27 H12          4.8420     1.0150    -1.1690 hc         1 0E1       0.037367
     28 H13          1.4430    -1.4310     1.0880 hc         1 0E1       0.077700
     29 H14          1.3470    -1.8530    -0.6200 hc         1 0E1       0.077700
     30 H2          -2.7110    -2.7140     0.0970 ho         1 0E1       0.492000
@<TRIPOS>BOND
     1     1     2 1   
     2     1     4 ar  
     3     1     8 ar  
     4     2     3 3   
     5     4     5 ar  
     6     4    17 1   
     7     5     6 ar  
     8     5    10 1   
     9     6     7 ar  
    10     6    16 1   
    11     7     8 ar  
    12     8     9 1   
    13     9    30 1   
    14    10    11 1   
    15    10    18 1   
    16    10    19 1   
    17    11    12 1   
    18    12    13 1   
    19    12    16 1   
    20    12    20 1   
    21    13    14 1   
    22    13    15 1   
    23    13    21 1   
    24    14    22 1   
    25    14    23 1   
    26    14    24 1   
    27    15    25 1   
    28    15    26 1   
    29    15    27 1   
    30    16    28 1   
    31    16    29 1   
@<TRIPOS>SUBSTRUCTURE
     1 0E1         1 TEMP              0 ****  ****    0 ROOT
