@<TRIPOS>MOLECULE
0E1
   30    31     1     0     0
SMALL
abcg2


@<TRIPOS>ATOM
      1 C1          -2.6750     0.4000    -0.0580 ca         1 0E1      -0.104000
      2 C2          -4.0370     0.7920    -0.1340 cg         1 0E1       0.341000
      3 N3          -5.1420     1.1150    -0.1890 n1         1 0E1      -0.446000
      4 C4          -1.6460     1.3320    -0.0350 ca         1 0E1       0.005000
      5 C5          -0.3330     0.9020     0.0430 ca         1 0E1      -0.217300
      6 C6          -0.0990    -0.4690     0.0870 ca         1 0E1       0.438300
      7 N7          -1.0840    -1.3670     0.0710 nb         1 0E1      -0.778000
      8 C8          -2.3280    -0.9600     0.0030 ca         1 0E1       0.629300
      9 O9          -3.3080    -1.8520    -0.0110 oh         1 0E1      -0.628300
     10 C10          0.8220     1.8670     0.0690 c6         1 0E1       0.218900
     11 O11          1.9910     1.2630     0.5470 os         1 0E1      -0.444000
     12 C12          2.3270     0.0850    -0.1660 c6         1 0E1       0.170300
     13 C13          3.7560    -0.3010     0.2050 c3         1 0E1      -0.056700
     14 C14          4.1540    -1.6270    -0.4390 c3         1 0E1      -0.088100
     15 C15          4.7390     0.7960    -0.1930 c3         1 0E1      -0.088100
     16 C16          1.3020    -0.9970     0.1570 c6         1 0E1      -0.166700
     17 H1          -1.8790     2.3890    -0.0770 ha         1 0E1       0.133000
     18 H3           0.9770     2.2810    -0.9380 h1         1 0E1       0.056200
     19 H4           0.5960     2.7060     0.7310 h1         1 0E1       0.056200
     20 H5           2.2910     0.2900    -1.2490 h1         1 0E1       0.039700
     21 H6           3.7920    -0.4270     1.2940 hc         1 0E1       0.060700
     22 H7           3.5710    -2.4670    -0.0610 hc         1 0E1       0.037367
     23 H8           4.0300    -1.5940    -1.5240 hc         1 0E1       0.037367
     24 H9           5.2030    -1.8450    -0.2360 hc         1 0E1       0.037367
     25 H10          4.4920     1.7540     0.2610 hc         1 0E1       0.037367
     26 H11          5.7520     0.5330     0.1170 hc         1 0E1       0.037367
     27 H12          4.7510     0.9310    -1.2770 hc         1 0E1       0.037367
     28 H13          1.4800    -1.3970     1.1620 hc         1 0E1       0.077700
     29 H14          1.3920    -1.8360    -0.5340 hc         1 0E1       0.077700
     30 H2          -2.9300    -2.7420     0.0310 ho         1 0E1       0.492000
@<TRIPOS>BOND
     1     1     2 1   
     2     1     4 ar  
     3     1     8 ar  
     4     2     3 3   
     5     4     5 ar  
     6     4    17 1   
     7     5     6 ar  
     8     5    10 1   
     9     6     7 ar  
    10     6    16 1   
    11     7     8 ar  
    12     8     9 1   
    13     9    30 1   
    14    10    11 1   
    15    10    18 1   
    16    10    19 1   
    17    11    12 1   
    18    12    13 1   
    19    12    16 1   
    20    12    20 1   
    21    13    14 1   
    22    13    15 1   
    23    13    21 1   
    24    14    22 1   
    25    14    23 1   
    26    14    24 1   
    27    15    25 1   
    28    15    26 1   
    29    15    27 1   
    30    16    28 1   
    31    16    29 1   
@<TRIPOS>SUBSTRUCTURE
     1 0E1         1 TEMP              0 ****  ****    0 ROOT
