@<TRIPOS>MOLECULE
0E2
   95    96     1     0     0
SMALL
No Charge or Current Charge


@<TRIPOS>ATOM
      1 C           -8.0450     1.0590    -0.1630 c          1 0E2       0.605100
      2 O           -7.8800     2.1510     0.3600 o          1 0E2      -0.613100
      3 CH3         -9.3420     0.6740    -0.8620 c3         1 0E2      -0.178100
      4 N           -7.0740     0.0840    -0.1770 ns         1 0E2      -0.492900
      5 CA          -5.7290     0.2010     0.4380 c3         1 0E2       0.030700
      6 C1          -4.6530    -0.4200    -0.5040 c          1 0E2       0.591100
      7 O1          -4.9330    -1.0820    -1.4960 o          1 0E2      -0.610100
      8 CB          -5.6860    -0.4120     1.8750 c3         1 0E2      -0.067700
      9 CG1         -6.5810     0.3570     2.8760 c3         1 0E2      -0.087600
     10 CG2         -6.0070    -1.9270     1.8950 c3         1 0E2      -0.087600
     11 N1          -3.3470    -0.1780    -0.1400 ns         1 0E2      -0.470900
     12 CA1         -2.1470    -0.6520    -0.8770 c3         1 0E2       0.033700
     13 C2          -1.0460    -1.0930     0.1260 c          1 0E2       0.593100
     14 O2          -1.1520    -0.9480     1.3390 o          1 0E2      -0.596100
     15 CB1         -1.5830     0.4150    -1.8590 c3         1 0E2       0.169300
     16 OG1         -1.0750     1.4950    -1.0540 os         1 0E2      -0.462000
     17 CG21        -2.6180     0.9790    -2.8610 c3         1 0E2      -0.121100
     18 N2           0.0820    -1.6540    -0.4410 ns         1 0E2      -0.492900
     19 CA2          1.3110    -2.0390     0.2900 c3         1 0E2       0.029700
     20 C3           2.5590    -1.6110    -0.5340 c          1 0E2       0.590100
     21 O3           2.5140    -1.3690    -1.7340 o          1 0E2      -0.613100
     22 CB2          1.3390    -3.5680     0.5750 c3         1 0E2      -0.087400
     23 CG           0.2670    -4.1000     1.5670 c3         1 0E2      -0.060700
     24 CD1          0.2410    -5.6450     1.5730 c3         1 0E2      -0.091100
     25 CD2          0.4670    -3.5570     3.0030 c3         1 0E2      -0.091100
     26 C4          -0.1780     2.4110    -1.7070 c3         1 0E2       0.212900
     27 C11          0.5350     3.2350    -0.6410 ca         1 0E2      -0.094300
     28 C21          1.1320     2.5990     0.4670 ca         1 0E2      -0.098500
     29 C31          1.8120     3.3530     1.4390 ca         1 0E2      -0.115000
     30 C41          1.9040     4.7490     1.3080 ca         1 0E2      -0.110000
     31 C5           1.3110     5.3900     0.2070 ca         1 0E2      -0.115000
     32 C6           0.6290     4.6360    -0.7650 ca         1 0E2      -0.098500
     33 CD21         5.2380     2.6610     0.6370 c          1 0E2       0.559000
     34 CG3          4.6950     1.3830    -0.0180 c5         1 0E2      -0.153700
     35 CD11         4.5720     1.7710    -1.5200 c5         1 0E2      -0.091400
     36 CAE          4.2740     3.2930    -1.4430 c5         1 0E2       0.093000
     37 NAH          5.0660     3.6650    -0.2750 ns         1 0E2      -0.502900
     38 CB3          5.5740     0.1300     0.2590 c3         1 0E2      -0.071400
     39 CA3          5.0530    -1.1930    -0.3660 c3         1 0E2       0.073700
     40 N3           3.7300    -1.5230     0.1910 ns         1 0E2      -0.499900
     41 C7           6.0440    -2.3900    -0.1980 c3         1 0E2       0.154300
     42 O4           7.2990    -2.0960    -0.8300 oh         1 0E2      -0.649000
     43 CMK          5.5150    -3.7150    -0.7900 c3         1 0E2      -0.126100
     44 H1         -10.0900     1.4740    -0.8360 hc         1 0E2       0.060700
     45 H2          -9.1160     0.3640    -1.8890 hc         1 0E2       0.060700
     46 H3          -9.7250    -0.2520    -0.4180 hc         1 0E2       0.060700
     47 H           -7.2970    -0.7700    -0.6760 hn         1 0E2       0.328500
     48 HA          -5.4720     1.2670     0.5130 h1         1 0E2       0.093700
     49 HB          -4.6590    -0.3030     2.2460 hc         1 0E2       0.061700
     50 HG11        -7.6430     0.2410     2.6290 hc         1 0E2       0.038533
     51 HG12        -6.4280    -0.0180     3.8960 hc         1 0E2       0.038533
     52 HG13        -6.3390     1.4260     2.8720 hc         1 0E2       0.038533
     53 HG21        -5.3220    -2.4850     1.2450 hc         1 0E2       0.038533
     54 HG22        -5.9040    -2.3290     2.9100 hc         1 0E2       0.038533
     55 HG23        -7.0330    -2.1190     1.5590 hc         1 0E2       0.038533
     56 H4          -3.1940     0.3680     0.7010 hn         1 0E2       0.336500
     57 HA1         -2.4140    -1.5450    -1.4550 h1         1 0E2       0.091700
     58 HB1         -0.7690    -0.0480    -2.4340 h1         1 0E2       0.045700
     59 HG24        -3.3750     1.5840    -2.3490 hc         1 0E2       0.049367
     60 HG25        -2.1300     1.6040    -3.6180 hc         1 0E2       0.049367
     61 HG26        -3.1260     0.1610    -3.3850 hc         1 0E2       0.049367
     62 H5           0.1020    -1.7220    -1.4530 hn         1 0E2       0.325500
     63 HA2          1.3600    -1.4830     1.2350 h1         1 0E2       0.091700
     64 HB2          1.2350    -4.0940    -0.3820 hc         1 0E2       0.050200
     65 HB3          2.3280    -3.8410     0.9630 hc         1 0E2       0.050200
     66 HG          -0.7180    -3.7680     1.2190 hc         1 0E2       0.059700
     67 HD11         1.2020    -6.0520     1.9120 hc         1 0E2       0.035700
     68 HD12        -0.5440    -6.0180     2.2410 hc         1 0E2       0.035700
     69 HD13         0.0390    -6.0340     0.5680 hc         1 0E2       0.035700
     70 HD21         1.4470    -3.8500     3.3990 hc         1 0E2       0.035700
     71 HD22         0.4000    -2.4640     3.0330 hc         1 0E2       0.035700
     72 HD23        -0.3040    -3.9530     3.6750 hc         1 0E2       0.035700
     73 H2A          0.5780     1.8670    -2.2880 h1         1 0E2       0.032200
     74 H3A         -0.7260     3.0720    -2.3910 h1         1 0E2       0.032200
     75 H21          1.0700     1.5180     0.5730 ha         1 0E2       0.121000
     76 H31          2.2700     2.8560     2.2910 ha         1 0E2       0.118500
     77 H41          2.4330     5.3320     2.0580 ha         1 0E2       0.116000
     78 H51          1.3830     6.4700     0.1040 ha         1 0E2       0.118500
     79 H6           0.1780     5.1420    -1.6160 ha         1 0E2       0.121000
     80 HA3          4.9410    -1.0240    -1.4460 h1         1 0E2       0.077700
     81 HMK1         5.2620    -3.5990    -1.8510 hc         1 0E2       0.045700
     82 HMK2         6.2670    -4.5070    -0.6980 hc         1 0E2       0.045700
     83 HMK3         4.6160    -4.0500    -0.2590 hc         1 0E2       0.045700
     84 HB21         5.6760    -0.0150     1.3420 hc         1 0E2       0.068700
     85 HG1          3.6950     1.2180     0.3980 hc         1 0E2       0.078700
     86 HAH          5.3980     4.5950    -0.0500 hn         1 0E2       0.324500
     87 HAE1         4.5850     3.8200    -2.3550 h1         1 0E2       0.048700
     88 HAE2         3.2070     3.4860    -1.2800 h1         1 0E2       0.048700
     89 HD14         5.5140     1.5950    -2.0530 hc         1 0E2       0.060200
     90 HD15         3.7890     1.2160    -2.0470 hc         1 0E2       0.060200
     91 H7           6.2040    -2.5450     0.8780 h1         1 0E2       0.071700
     92 HO           7.1570    -2.1560    -1.7990 ho         1 0E2       0.441000
     93 HN3          3.6680    -1.7340     1.1810 hn         1 0E2       0.317500
     94 HB11         6.5880     0.3270    -0.1120 hc         1 0E2       0.068700
     95 OAD          5.8680     2.7930     1.6740 o          1 0E2      -0.560000
@<TRIPOS>BOND
     1     1     2 2   
     2     1     3 1   
     3     1     4 1   
     4     3    44 1   
     5     3    45 1   
     6     3    46 1   
     7     4     5 1   
     8     4    47 1   
     9     5     6 1   
    10     5     8 1   
    11     5    48 1   
    12     6     7 2   
    13     6    11 1   
    14     8     9 1   
    15     8    10 1   
    16     8    49 1   
    17     9    50 1   
    18     9    51 1   
    19     9    52 1   
    20    10    53 1   
    21    10    54 1   
    22    10    55 1   
    23    11    12 1   
    24    11    56 1   
    25    12    13 1   
    26    12    15 1   
    27    12    57 1   
    28    13    14 2   
    29    13    18 1   
    30    15    16 1   
    31    15    17 1   
    32    15    58 1   
    33    16    26 1   
    34    17    59 1   
    35    17    60 1   
    36    17    61 1   
    37    18    19 1   
    38    18    62 1   
    39    19    20 1   
    40    19    22 1   
    41    19    63 1   
    42    20    21 2   
    43    20    40 1   
    44    22    23 1   
    45    22    64 1   
    46    22    65 1   
    47    23    24 1   
    48    23    25 1   
    49    23    66 1   
    50    24    67 1   
    51    24    68 1   
    52    24    69 1   
    53    25    70 1   
    54    25    71 1   
    55    25    72 1   
    56    26    27 1   
    57    26    73 1   
    58    26    74 1   
    59    27    28 ar  
    60    27    32 ar  
    61    28    29 ar  
    62    28    75 1   
    63    29    30 ar  
    64    29    76 1   
    65    30    31 ar  
    66    30    77 1   
    67    31    32 ar  
    68    31    78 1   
    69    32    79 1   
    70    33    34 1   
    71    33    37 1   
    72    33    95 2   
    73    34    35 1   
    74    34    38 1   
    75    34    85 1   
    76    35    36 1   
    77    35    89 1   
    78    35    90 1   
    79    36    37 1   
    80    36    87 1   
    81    36    88 1   
    82    37    86 1   
    83    38    39 1   
    84    38    84 1   
    85    38    94 1   
    86    39    40 1   
    87    39    41 1   
    88    39    80 1   
    89    40    93 1   
    90    41    42 1   
    91    41    43 1   
    92    41    91 1   
    93    42    92 1   
    94    43    81 1   
    95    43    82 1   
    96    43    83 1   
@<TRIPOS>SUBSTRUCTURE
     1 0E2         1 TEMP              0 ****  ****    0 ROOT
