@<TRIPOS>MOLECULE
0E2
   95    96     1     0     0
SMALL
bcc


@<TRIPOS>ATOM
      1 C           -7.5660    -0.3250     0.5010 c          1 0E2       0.672100
      2 O           -7.8460     0.8180     0.1680 o          1 0E2      -0.613100
      3 CH3         -8.6240    -1.3910     0.6430 c3         1 0E2      -0.178100
      4 N           -6.3090    -0.7350     0.7560 ns         1 0E2      -0.559900
      5 CA          -5.1430     0.0950     0.6090 c3         1 0E2       0.030700
      6 C1          -4.1300    -0.6050    -0.2890 c          1 0E2       0.658100
      7 O1          -4.1130    -1.8150    -0.4390 o          1 0E2      -0.610100
      8 CB          -4.5000     0.4600     1.9680 c3         1 0E2      -0.067700
      9 CG1         -5.4440     1.3360     2.7820 c3         1 0E2      -0.087600
     10 CG2         -4.0680    -0.7670     2.7630 c3         1 0E2      -0.087600
     11 N1          -3.2500     0.2210    -0.8870 ns         1 0E2      -0.537900
     12 CA1         -2.0610    -0.2920    -1.5060 c3         1 0E2       0.033700
     13 C2          -1.0610    -0.7460    -0.4330 c          1 0E2       0.660100
     14 O2          -1.1430    -0.3760     0.7240 o          1 0E2      -0.596100
     15 CB1         -1.4230     0.7570    -2.4200 c3         1 0E2       0.146100
     16 OG1         -1.0560     1.8280    -1.5830 os         1 0E2      -0.415600
     17 CG21        -2.3520     1.1750    -3.5490 c3         1 0E2      -0.121100
     18 N2          -0.1090    -1.5730    -0.8980 ns         1 0E2      -0.559900
     19 CA2          0.9200    -2.1620    -0.0840 c3         1 0E2       0.029700
     20 C3           2.2950    -1.7080    -0.5710 c          1 0E2       0.657100
     21 O3           2.5270    -1.5610    -1.7600 o          1 0E2      -0.613100
     22 CB2          0.8550    -3.6940    -0.1350 c3         1 0E2      -0.087400
     23 CG          -0.4690    -4.2950     0.3390 c3         1 0E2      -0.060700
     24 CD1         -0.4490    -5.8040     0.1120 c3         1 0E2      -0.091100
     25 CD2         -0.7580    -3.9770     1.8020 c3         1 0E2      -0.091100
     26 C4          -0.1280     2.7320    -2.1250 c3         1 0E2       0.189700
     27 C11          0.4740     3.5530    -1.0190 ca         1 0E2      -0.094300
     28 C21          0.7490     2.9930     0.2280 ca         1 0E2      -0.116500
     29 C31          1.3620     3.7510     1.2160 ca         1 0E2      -0.133000
     30 C41          1.7110     5.0730     0.9720 ca         1 0E2      -0.128000
     31 C5           1.4370     5.6370    -0.2650 ca         1 0E2      -0.133000
     32 C6           0.8180     4.8800    -1.2520 ca         1 0E2      -0.116500
     33 CD21         4.6050     2.5100     1.2670 c          1 0E2       0.701500
     34 CG3          4.2290     1.2570     0.4910 c5         1 0E2      -0.153700
     35 CD11         4.4920     1.6490    -0.9640 c5         1 0E2      -0.091400
     36 CAE          4.3420     3.1710    -0.9660 c5         1 0E2       0.093000
     37 NAH          4.7200     3.5170     0.3880 ns         1 0E2      -0.569900
     38 CB3          4.9740     0.0250     0.9790 c3         1 0E2      -0.071400
     39 CA3          4.6020    -1.2410     0.2090 c3         1 0E2       0.073700
     40 N3           3.2010    -1.5490     0.4060 ns         1 0E2      -0.566900
     41 C7           5.4730    -2.4470     0.6150 c3         1 0E2       0.131100
     42 O4           6.8450    -2.1350     0.5000 oh         1 0E2      -0.586800
     43 CMK          5.1280    -3.7020    -0.1740 c3         1 0E2      -0.126100
     44 H1          -9.4520    -1.0070     1.2380 hc         1 0E2       0.060700
     45 H2          -9.0190    -1.6350    -0.3440 hc         1 0E2       0.060700
     46 H3          -8.2610    -2.3080     1.1030 hc         1 0E2       0.060700
     47 H           -6.1570    -1.7070     0.9680 hn         1 0E2       0.328500
     48 HA          -5.4580     1.0230     0.1260 h1         1 0E2       0.093700
     49 HB          -3.6030     1.0450     1.7410 hc         1 0E2       0.061700
     50 HG11        -6.3590     0.8010     3.0430 hc         1 0E2       0.038533
     51 HG12        -4.9650     1.6400     3.7140 hc         1 0E2       0.038533
     52 HG13        -5.7240     2.2380     2.2390 hc         1 0E2       0.038533
     53 HG21        -3.3450    -1.3790     2.2240 hc         1 0E2       0.038533
     54 HG22        -3.5970    -0.4570     3.6970 hc         1 0E2       0.038533
     55 HG23        -4.9220    -1.3950     3.0290 hc         1 0E2       0.038533
     56 H4          -3.2420     1.1910    -0.6090 hn         1 0E2       0.336500
     57 HA1         -2.3260    -1.1510    -2.1270 h1         1 0E2       0.091700
     58 HB1         -0.5230     0.3050    -2.8650 h1         1 0E2       0.045700
     59 HG24        -3.2560     1.6550    -3.1750 hc         1 0E2       0.049367
     60 HG25        -1.8540     1.8680    -4.2290 hc         1 0E2       0.049367
     61 HG26        -2.6470     0.3030    -4.1330 hc         1 0E2       0.049367
     62 H5          -0.1380    -1.8470    -1.8690 hn         1 0E2       0.325500
     63 HA2          0.7620    -1.8200     0.9400 h1         1 0E2       0.091700
     64 HB2          1.0530    -4.0160    -1.1630 hc         1 0E2       0.050200
     65 HB3          1.6690    -4.0990     0.4760 hc         1 0E2       0.050200
     66 HG          -1.2780    -3.8740    -0.2680 hc         1 0E2       0.059700
     67 HD11         0.3340    -6.2780     0.7090 hc         1 0E2       0.035700
     68 HD12        -1.4010    -6.2570     0.3970 hc         1 0E2       0.035700
     69 HD13        -0.2640    -6.0500    -0.9350 hc         1 0E2       0.035700
     70 HD21         0.0550    -4.3250     2.4450 hc         1 0E2       0.035700
     71 HD22        -0.8920    -2.9090     1.9760 hc         1 0E2       0.035700
     72 HD23        -1.6720    -4.4740     2.1300 hc         1 0E2       0.035700
     73 H2A          0.6700     2.1840    -2.6470 h1         1 0E2       0.032200
     74 H3A         -0.5910     3.3930    -2.8680 h1         1 0E2       0.032200
     75 H21          0.4750     1.9660     0.4360 ha         1 0E2       0.139000
     76 H31          1.5740     3.3050     2.1790 ha         1 0E2       0.136500
     77 H41          2.1950     5.6580     1.7440 ha         1 0E2       0.134000
     78 H51          1.7000     6.6680    -0.4640 ha         1 0E2       0.136500
     79 H6           0.6000     5.3290    -2.2140 ha         1 0E2       0.139000
     80 HA3          4.7420    -1.0690    -0.8620 h1         1 0E2       0.077700
     81 HMK1         5.2420    -3.5380    -1.2480 hc         1 0E2       0.045700
     82 HMK2         5.7870    -4.5210     0.1160 hc         1 0E2       0.045700
     83 HMK3         4.1050    -4.0280     0.0080 hc         1 0E2       0.045700
     84 HB21         4.7760    -0.1260     2.0450 hc         1 0E2       0.068700
     85 HG1          3.1510     1.1180     0.6440 hc         1 0E2       0.078700
     86 HAH          4.8030     4.4740     0.6920 hn         1 0E2       0.324500
     87 HAE1         4.9940     3.6570    -1.6920 h1         1 0E2       0.048700
     88 HAE2         3.3140     3.4770    -1.1730 h1         1 0E2       0.048700
     89 HD14         5.5150     1.3800    -1.2410 hc         1 0E2       0.060200
     90 HD15         3.8200     1.1640    -1.6690 hc         1 0E2       0.060200
     91 H7           5.3060    -2.6420     1.6800 h1         1 0E2       0.071700
     92 HO           7.0570    -2.0410    -0.4350 ho         1 0E2       0.402000
     93 HN3          2.8910    -1.6690     1.3590 hn         1 0E2       0.317500
     94 HB11         6.0490     0.1920     0.8820 hc         1 0E2       0.068700
     95 OAD          4.7690     2.5850     2.4750 o          1 0E2      -0.635500
@<TRIPOS>BOND
     1     1     2 2   
     2     1     3 1   
     3     1     4 1   
     4     3    44 1   
     5     3    45 1   
     6     3    46 1   
     7     4     5 1   
     8     4    47 1   
     9     5     6 1   
    10     5     8 1   
    11     5    48 1   
    12     6     7 2   
    13     6    11 1   
    14     8     9 1   
    15     8    10 1   
    16     8    49 1   
    17     9    50 1   
    18     9    51 1   
    19     9    52 1   
    20    10    53 1   
    21    10    54 1   
    22    10    55 1   
    23    11    12 1   
    24    11    56 1   
    25    12    13 1   
    26    12    15 1   
    27    12    57 1   
    28    13    14 2   
    29    13    18 1   
    30    15    16 1   
    31    15    17 1   
    32    15    58 1   
    33    16    26 1   
    34    17    59 1   
    35    17    60 1   
    36    17    61 1   
    37    18    19 1   
    38    18    62 1   
    39    19    20 1   
    40    19    22 1   
    41    19    63 1   
    42    20    21 2   
    43    20    40 1   
    44    22    23 1   
    45    22    64 1   
    46    22    65 1   
    47    23    24 1   
    48    23    25 1   
    49    23    66 1   
    50    24    67 1   
    51    24    68 1   
    52    24    69 1   
    53    25    70 1   
    54    25    71 1   
    55    25    72 1   
    56    26    27 1   
    57    26    73 1   
    58    26    74 1   
    59    27    28 ar  
    60    27    32 ar  
    61    28    29 ar  
    62    28    75 1   
    63    29    30 ar  
    64    29    76 1   
    65    30    31 ar  
    66    30    77 1   
    67    31    32 ar  
    68    31    78 1   
    69    32    79 1   
    70    33    34 1   
    71    33    37 1   
    72    33    95 2   
    73    34    35 1   
    74    34    38 1   
    75    34    85 1   
    76    35    36 1   
    77    35    89 1   
    78    35    90 1   
    79    36    37 1   
    80    36    87 1   
    81    36    88 1   
    82    37    86 1   
    83    38    39 1   
    84    38    84 1   
    85    38    94 1   
    86    39    40 1   
    87    39    41 1   
    88    39    80 1   
    89    40    93 1   
    90    41    42 1   
    91    41    43 1   
    92    41    91 1   
    93    42    92 1   
    94    43    81 1   
    95    43    82 1   
    96    43    83 1   
@<TRIPOS>SUBSTRUCTURE
     1 0E2         1 TEMP              0 ****  ****    0 ROOT
