@<TRIPOS>MOLECULE
0E3
   93    94     1     0     0
SMALL
No Charge or Current Charge


@<TRIPOS>ATOM
      1 C            6.6270    -0.4210    -2.9570 c          1 0E3       0.604100
      2 O            7.4590    -1.2800    -2.7010 o          1 0E3      -0.619100
      3 CH3          6.6090     0.3340    -4.2790 c3         1 0E3      -0.177100
      4 N            5.6320    -0.0670    -2.0780 ns         1 0E3      -0.496900
      5 CA           5.4420    -0.6350    -0.7220 c3         1 0E3       0.035700
      6 C1           3.9530    -0.4580    -0.2870 c          1 0E3       0.603100
      7 O1           3.2230     0.3840    -0.7920 o          1 0E3      -0.562100
      8 CB           6.4680    -0.0130     0.2800 c3         1 0E3      -0.076700
      9 CG1          6.2530     1.5040     0.5080 c3         1 0E3      -0.089100
     10 CG2          6.5470    -0.7750     1.6240 c3         1 0E3      -0.089100
     11 N1           3.5170    -1.3560     0.6740 ns         1 0E3      -0.488900
     12 CA1          2.1480    -1.4410     1.2650 c3         1 0E3       0.050700
     13 C2           1.0570    -1.8260     0.2140 c          1 0E3       0.600100
     14 O2           1.3050    -2.0740    -0.9590 o          1 0E3      -0.571100
     15 CB1          1.7180    -0.2400     2.1670 c3         1 0E3       0.177300
     16 OG1          1.2810     0.8340     1.3170 os         1 0E3      -0.424000
     17 CG21         2.8360     0.2770     3.1020 c3         1 0E3      -0.116100
     18 N2          -0.2350    -1.8850     0.7050 ns         1 0E3      -0.508900
     19 CA2         -1.4590    -2.1550    -0.0840 c3         1 0E3       0.036700
     20 C3          -2.6270    -1.2920     0.4770 c          1 0E3       0.592100
     21 O3          -2.5980    -0.7770     1.5880 o          1 0E3      -0.618100
     22 CB2         -1.8370    -3.6650    -0.0460 c3         1 0E3      -0.091400
     23 CG          -0.8800    -4.6400    -0.7880 c3         1 0E3      -0.054700
     24 CD1         -1.2440    -6.1100    -0.4790 c3         1 0E3      -0.090100
     25 CD2         -0.8570    -4.3990    -2.3170 c3         1 0E3      -0.090100
     26 C4           0.4780     1.8600     1.9280 c3         1 0E3       0.205900
     27 C11          0.0570     2.8590     0.8540 ca         1 0E3      -0.084300
     28 C21         -0.3570     2.4160    -0.4200 ca         1 0E3      -0.089500
     29 C31         -0.7490     3.3410    -1.4020 ca         1 0E3      -0.119000
     30 C41         -0.7340     4.7170    -1.1190 ca         1 0E3      -0.105000
     31 C5          -0.3260     5.1660     0.1480 ca         1 0E3      -0.119000
     32 C6           0.0690     4.2410     1.1310 ca         1 0E3      -0.089500
     33 CD21        -3.9790     3.4100    -0.4500 c          1 0E3       0.561000
     34 NAH         -3.7850     4.2600     0.6040 ns         1 0E3      -0.506900
     35 CAE         -3.5720     3.5980     1.8880 c5         1 0E3       0.094000
     36 CD11        -4.3270     2.2640     1.6430 c5         1 0E3      -0.090400
     37 CG3         -3.9960     1.9950     0.1470 c5         1 0E3      -0.155700
     38 CB3         -4.9620     1.0210    -0.5800 c3         1 0E3      -0.060400
     39 CA3         -4.9700    -0.4350    -0.0390 c3         1 0E3      -0.006300
     40 N3          -3.7140    -1.1570    -0.3630 ns         1 0E3      -0.481900
     41 C7          -6.1930    -1.2340    -0.5690 c          1 0E3       0.557100
     42 O4          -6.1130    -1.9970    -1.5250 o          1 0E3      -0.513100
     43 CMK         -7.5100    -1.0510     0.1870 c3         1 0E3      -0.201100
     44 H1           7.4140     0.0220    -4.9550 hc         1 0E3       0.060700
     45 H2           5.6230     0.2180    -4.7430 hc         1 0E3       0.060700
     46 H3           6.6460     1.4100    -4.0750 hc         1 0E3       0.060700
     47 H            4.9760     0.6410    -2.3930 hn         1 0E3       0.338500
     48 HA           5.6260    -1.7160    -0.7850 h1         1 0E3       0.077700
     49 HB           7.4600    -0.1210    -0.1770 hc         1 0E3       0.067700
     50 HG11         5.2850     1.7020     0.9810 hc         1 0E3       0.036200
     51 HG12         7.0370     1.9100     1.1600 hc         1 0E3       0.036200
     52 HG13         6.2910     2.0550    -0.4390 hc         1 0E3       0.036200
     53 HG21         5.6390    -0.6330     2.2210 hc         1 0E3       0.036200
     54 HG22         6.6890    -1.8500     1.4550 hc         1 0E3       0.036200
     55 HG23         7.3950    -0.4150     2.2180 hc         1 0E3       0.036200
     56 H4           4.2060    -2.0250     0.9960 hn         1 0E3       0.315500
     57 HA1          2.1810    -2.3050     1.9400 h1         1 0E3       0.057700
     58 HB1          0.8830    -0.5800     2.7950 h1         1 0E3       0.027700
     59 HG24         3.6090     0.8070     2.5350 hc         1 0E3       0.046033
     60 HG25         2.4320     0.9610     3.8580 hc         1 0E3       0.046033
     61 HG26         3.3080    -0.5590     3.6320 hc         1 0E3       0.046033
     62 H5          -0.3630    -1.6330     1.6790 hn         1 0E3       0.326500
     63 HA2         -1.3020    -1.8310    -1.1210 h1         1 0E3       0.090700
     64 HB2         -1.9110    -3.9700     1.0060 hc         1 0E3       0.056200
     65 HB3         -2.8420    -3.7930    -0.4660 hc         1 0E3       0.056200
     66 HG           0.1360    -4.4810    -0.4070 hc         1 0E3       0.052700
     67 HD11        -2.2550    -6.3460    -0.8320 hc         1 0E3       0.035367
     68 HD12        -0.5410    -6.7950    -0.9690 hc         1 0E3       0.035367
     69 HD13        -1.2030    -6.3020     0.6000 hc         1 0E3       0.035367
     70 HD21        -1.8560    -4.5350    -2.7490 hc         1 0E3       0.035367
     71 HD22        -0.5150    -3.3870    -2.5600 hc         1 0E3       0.035367
     72 HD23        -0.1750    -5.1040    -2.8080 hc         1 0E3       0.035367
     73 H2A         -0.4220     1.4260     2.3820 h1         1 0E3       0.028200
     74 H3A          1.0400     2.3820     2.7120 h1         1 0E3       0.028200
     75 H21         -0.3750     1.3530    -0.6490 ha         1 0E3       0.114500
     76 H31         -1.0670     2.9920    -2.3820 ha         1 0E3       0.114000
     77 H41         -1.0410     5.4330    -1.8780 ha         1 0E3       0.114000
     78 H51         -0.3160     6.2310     0.3700 ha         1 0E3       0.114000
     79 H6           0.3820     4.6000     2.1090 ha         1 0E3       0.114500
     80 HN2         -3.6590    -1.6360    -1.2570 hn         1 0E3       0.324500
     81 HA3         -5.0850    -0.4020     1.0520 h1         1 0E3       0.099700
     82 HMK1        -7.7650     0.0130     0.2220 hc         1 0E3       0.065700
     83 HMK2        -8.3250    -1.6500    -0.2350 hc         1 0E3       0.065700
     84 HMK3        -7.3460    -1.2840     1.2450 hc         1 0E3       0.065700
     85 HB11        -5.9780     1.4310    -0.5170 hc         1 0E3       0.063700
     86 HB21        -4.7200     0.9920    -1.6500 hc         1 0E3       0.063700
     87 HG1         -2.9730     1.6120     0.0870 hc         1 0E3       0.084700
     88 HAE1        -2.5040     3.4270     2.0790 h1         1 0E3       0.051700
     89 HAE2        -3.9910     4.1600     2.7340 h1         1 0E3       0.051700
     90 HD14        -3.9940     1.4650     2.3150 hc         1 0E3       0.059700
     91 HD15        -5.4050     2.3960     1.7960 hc         1 0E3       0.059700
     92 HAH         -3.8110     5.2590     0.4410 hn         1 0E3       0.327500
     93 OAD         -4.3110     3.7900    -1.5610 o          1 0E3      -0.560000
@<TRIPOS>BOND
     1     1     2 2   
     2     1     3 1   
     3     1     4 1   
     4     3    44 1   
     5     3    45 1   
     6     3    46 1   
     7     4     5 1   
     8     4    47 1   
     9     5     6 1   
    10     5     8 1   
    11     5    48 1   
    12     6     7 2   
    13     6    11 1   
    14     8     9 1   
    15     8    10 1   
    16     8    49 1   
    17     9    50 1   
    18     9    51 1   
    19     9    52 1   
    20    10    53 1   
    21    10    54 1   
    22    10    55 1   
    23    11    12 1   
    24    11    56 1   
    25    12    13 1   
    26    12    15 1   
    27    12    57 1   
    28    13    14 2   
    29    13    18 1   
    30    15    16 1   
    31    15    17 1   
    32    15    58 1   
    33    16    26 1   
    34    17    59 1   
    35    17    60 1   
    36    17    61 1   
    37    18    19 1   
    38    18    62 1   
    39    19    20 1   
    40    19    22 1   
    41    19    63 1   
    42    20    21 2   
    43    20    40 1   
    44    22    23 1   
    45    22    64 1   
    46    22    65 1   
    47    23    24 1   
    48    23    25 1   
    49    23    66 1   
    50    24    67 1   
    51    24    68 1   
    52    24    69 1   
    53    25    70 1   
    54    25    71 1   
    55    25    72 1   
    56    26    27 1   
    57    26    73 1   
    58    26    74 1   
    59    27    28 ar  
    60    27    32 ar  
    61    28    29 ar  
    62    28    75 1   
    63    29    30 ar  
    64    29    76 1   
    65    30    31 ar  
    66    30    77 1   
    67    31    32 ar  
    68    31    78 1   
    69    32    79 1   
    70    33    34 1   
    71    33    37 1   
    72    33    93 2   
    73    34    35 1   
    74    34    92 1   
    75    35    36 1   
    76    35    88 1   
    77    35    89 1   
    78    36    37 1   
    79    36    90 1   
    80    36    91 1   
    81    37    38 1   
    82    37    87 1   
    83    38    39 1   
    84    38    85 1   
    85    38    86 1   
    86    39    40 1   
    87    39    41 1   
    88    39    81 1   
    89    40    80 1   
    90    41    42 2   
    91    41    43 1   
    92    43    82 1   
    93    43    83 1   
    94    43    84 1   
@<TRIPOS>SUBSTRUCTURE
     1 0E3         1 TEMP              0 ****  ****    0 ROOT
