@<TRIPOS>MOLECULE
0E3
   93    94     1     0     0
SMALL
bcc


@<TRIPOS>ATOM
      1 C            6.5420    -0.7620    -2.7300 c          1 0E3       0.671100
      2 O            7.1540    -1.8090    -2.5580 o          1 0E3      -0.619100
      3 CH3          6.6830     0.0420    -3.9980 c3         1 0E3      -0.177100
      4 N            5.7130    -0.2410    -1.8110 ns         1 0E3      -0.563900
      5 CA           5.4870    -0.8300    -0.5140 c3         1 0E3       0.035700
      6 C1           4.0880    -0.4090    -0.0610 c          1 0E3       0.670100
      7 O1           3.6340     0.6800    -0.3590 o          1 0E3      -0.562100
      8 CB           6.5820    -0.4250     0.5030 c3         1 0E3      -0.076700
      9 CG1          6.6740     1.0810     0.7150 c3         1 0E3      -0.089100
     10 CG2          6.4410    -1.1610     1.8310 c3         1 0E3      -0.089100
     11 N1           3.4660    -1.3140     0.7150 ns         1 0E3      -0.555900
     12 CA1          2.1300    -1.2510     1.2470 c3         1 0E3       0.050700
     13 C2           1.0700    -1.4480     0.1540 c          1 0E3       0.667100
     14 O2           1.3190    -1.3490    -1.0320 o          1 0E3      -0.571100
     15 CB1          1.7650    -0.0350     2.1210 c3         1 0E3       0.154100
     16 OG1          1.3130     1.0110     1.2980 os         1 0E3      -0.377600
     17 CG21         2.8920     0.3860     3.0490 c3         1 0E3      -0.116100
     18 N2          -0.1380    -1.7650     0.6520 ns         1 0E3      -0.575900
     19 CA2         -1.3450    -1.9170    -0.1200 c3         1 0E3       0.036700
     20 C3          -2.4900    -1.2720     0.6550 c          1 0E3       0.659100
     21 O3          -2.4740    -1.2080     1.8740 o          1 0E3      -0.618100
     22 CB2         -1.7050    -3.3940    -0.3530 c3         1 0E3      -0.091400
     23 CG          -0.7370    -4.1670    -1.2480 c3         1 0E3      -0.054700
     24 CD1         -1.0580    -5.6580    -1.1760 c3         1 0E3      -0.090100
     25 CD2         -0.7860    -3.6770    -2.6900 c3         1 0E3      -0.090100
     26 C4           0.3640     1.8610     1.8960 c3         1 0E3       0.182700
     27 C11         -0.1090     2.8300     0.8520 ca         1 0E3      -0.084300
     28 C21         -0.7210     2.3600    -0.3090 ca         1 0E3      -0.107500
     29 C31         -1.1440     3.2440    -1.2900 ca         1 0E3      -0.137000
     30 C41         -0.9640     4.6130    -1.1230 ca         1 0E3      -0.123000
     31 C5          -0.3580     5.0890     0.0300 ca         1 0E3      -0.137000
     32 C6           0.0710     4.1990     1.0090 ca         1 0E3      -0.107500
     33 CD21        -4.9450     3.2220    -0.7860 c          1 0E3       0.703500
     34 NAH         -4.6290     4.2550     0.0080 ns         1 0E3      -0.573900
     35 CAE         -3.8360     3.9080     1.1690 c5         1 0E3       0.094000
     36 CD11        -4.0620     2.3980     1.2850 c5         1 0E3      -0.090400
     37 CG3         -4.3980     1.9600    -0.1410 c5         1 0E3      -0.155700
     38 CB3         -5.3510     0.7820    -0.2490 c3         1 0E3      -0.060400
     39 CA3         -4.7890    -0.4660     0.4390 c3         1 0E3      -0.006300
     40 N3          -3.5090    -0.8340    -0.1030 ns         1 0E3      -0.548900
     41 C7          -5.7680    -1.6370     0.3780 c          1 0E3       0.557100
     42 O4          -5.4360    -2.7070    -0.0700 o          1 0E3      -0.513100
     43 CMK         -7.1490    -1.3780     0.9090 c3         1 0E3      -0.201100
     44 H1           6.5810    -0.6140    -4.8620 hc         1 0E3       0.060700
     45 H2           5.9580     0.8500    -4.0850 hc         1 0E3       0.060700
     46 H3           7.6820     0.4770    -4.0360 hc         1 0E3       0.060700
     47 H            5.2520     0.6350    -2.0020 hn         1 0E3       0.338500
     48 HA           5.5250    -1.9170    -0.6270 h1         1 0E3       0.077700
     49 HB           7.5200    -0.7570     0.0470 hc         1 0E3       0.067700
     50 HG11         5.7920     1.4800     1.2190 hc         1 0E3       0.036200
     51 HG12         7.5380     1.3160     1.3380 hc         1 0E3       0.036200
     52 HG13         6.7950     1.6190    -0.2260 hc         1 0E3       0.036200
     53 HG21         5.5750    -0.8220     2.4010 hc         1 0E3       0.036200
     54 HG22         6.3510    -2.2400     1.6900 hc         1 0E3       0.036200
     55 HG23         7.3230    -0.9900     2.4490 hc         1 0E3       0.036200
     56 H4           3.9240    -2.2030     0.8300 hn         1 0E3       0.315500
     57 HA1          2.0680    -2.1110     1.9180 h1         1 0E3       0.057700
     58 HB1          0.9330    -0.3790     2.7530 h1         1 0E3       0.027700
     59 HG24         3.7320     0.8090     2.4990 hc         1 0E3       0.046033
     60 HG25         2.5420     1.1350     3.7600 hc         1 0E3       0.046033
     61 HG26         3.2520    -0.4670     3.6260 hc         1 0E3       0.046033
     62 H5          -0.2470    -1.8570     1.6510 hn         1 0E3       0.326500
     63 HA2         -1.2090    -1.4090    -1.0770 h1         1 0E3       0.090700
     64 HB2         -1.7640    -3.8800     0.6260 hc         1 0E3       0.056200
     65 HB3         -2.7100    -3.4520    -0.7840 hc         1 0E3       0.056200
     66 HG           0.2800    -4.0280    -0.8680 hc         1 0E3       0.052700
     67 HD11        -2.0740    -5.8580    -1.5260 hc         1 0E3       0.035367
     68 HD12        -0.3750    -6.2390    -1.7970 hc         1 0E3       0.035367
     69 HD13        -0.9800    -6.0330    -0.1540 hc         1 0E3       0.035367
     70 HD21        -1.7880    -3.8040    -3.1080 hc         1 0E3       0.035367
     71 HD22        -0.5150    -2.6250    -2.7770 hc         1 0E3       0.035367
     72 HD23        -0.0930    -4.2410    -3.3170 hc         1 0E3       0.035367
     73 H2A         -0.4850     1.2760     2.2810 h1         1 0E3       0.028200
     74 H3A          0.7830     2.4100     2.7490 h1         1 0E3       0.028200
     75 H21         -0.8650     1.2950    -0.4490 ha         1 0E3       0.132500
     76 H31         -1.6150     2.8660    -2.1890 ha         1 0E3       0.132000
     77 H41         -1.2980     5.3010    -1.8880 ha         1 0E3       0.132000
     78 H51         -0.2120     6.1520     0.1700 ha         1 0E3       0.132000
     79 H6           0.5510     4.5760     1.9040 ha         1 0E3       0.132500
     80 HN2         -3.4570    -0.9830    -1.1000 hn         1 0E3       0.324500
     81 HA3         -4.6510    -0.2430     1.5020 h1         1 0E3       0.099700
     82 HMK1        -7.7530    -0.9040     0.1320 hc         1 0E3       0.065700
     83 HMK2        -7.6330    -2.3120     1.1880 hc         1 0E3       0.065700
     84 HMK3        -7.1400    -0.7030     1.7650 hc         1 0E3       0.065700
     85 HB11        -6.3040     1.0440     0.2150 hc         1 0E3       0.063700
     86 HB21        -5.5600     0.5650    -1.3000 hc         1 0E3       0.063700
     87 HG1         -3.4710     1.7220    -0.6740 hc         1 0E3       0.084700
     88 HAE1        -2.7820     4.1430     1.0060 h1         1 0E3       0.051700
     89 HAE2        -4.1740     4.4500     2.0510 h1         1 0E3       0.051700
     90 HD14        -3.1900     1.8870     1.6910 hc         1 0E3       0.059700
     91 HD15        -4.9080     2.1990     1.9480 hc         1 0E3       0.059700
     92 HAH         -4.7790     5.2100    -0.2770 hn         1 0E3       0.327500
     93 OAD         -5.5510     3.2830    -1.8450 o          1 0E3      -0.635500
@<TRIPOS>BOND
     1     1     2 2   
     2     1     3 1   
     3     1     4 1   
     4     3    44 1   
     5     3    45 1   
     6     3    46 1   
     7     4     5 1   
     8     4    47 1   
     9     5     6 1   
    10     5     8 1   
    11     5    48 1   
    12     6     7 2   
    13     6    11 1   
    14     8     9 1   
    15     8    10 1   
    16     8    49 1   
    17     9    50 1   
    18     9    51 1   
    19     9    52 1   
    20    10    53 1   
    21    10    54 1   
    22    10    55 1   
    23    11    12 1   
    24    11    56 1   
    25    12    13 1   
    26    12    15 1   
    27    12    57 1   
    28    13    14 2   
    29    13    18 1   
    30    15    16 1   
    31    15    17 1   
    32    15    58 1   
    33    16    26 1   
    34    17    59 1   
    35    17    60 1   
    36    17    61 1   
    37    18    19 1   
    38    18    62 1   
    39    19    20 1   
    40    19    22 1   
    41    19    63 1   
    42    20    21 2   
    43    20    40 1   
    44    22    23 1   
    45    22    64 1   
    46    22    65 1   
    47    23    24 1   
    48    23    25 1   
    49    23    66 1   
    50    24    67 1   
    51    24    68 1   
    52    24    69 1   
    53    25    70 1   
    54    25    71 1   
    55    25    72 1   
    56    26    27 1   
    57    26    73 1   
    58    26    74 1   
    59    27    28 ar  
    60    27    32 ar  
    61    28    29 ar  
    62    28    75 1   
    63    29    30 ar  
    64    29    76 1   
    65    30    31 ar  
    66    30    77 1   
    67    31    32 ar  
    68    31    78 1   
    69    32    79 1   
    70    33    34 1   
    71    33    37 1   
    72    33    93 2   
    73    34    35 1   
    74    34    92 1   
    75    35    36 1   
    76    35    88 1   
    77    35    89 1   
    78    36    37 1   
    79    36    90 1   
    80    36    91 1   
    81    37    38 1   
    82    37    87 1   
    83    38    39 1   
    84    38    85 1   
    85    38    86 1   
    86    39    40 1   
    87    39    41 1   
    88    39    81 1   
    89    40    80 1   
    90    41    42 2   
    91    41    43 1   
    92    43    82 1   
    93    43    83 1   
    94    43    84 1   
@<TRIPOS>SUBSTRUCTURE
     1 0E3         1 TEMP              0 ****  ****    0 ROOT
