@<TRIPOS>MOLECULE
0E4
   66    66     1     0     0
SMALL
No Charge or Current Charge


@<TRIPOS>ATOM
      1 C            5.2710     2.0980     0.7830 c          1 0E4       0.602100
      2 O            4.5890     1.9540     1.7870 o          1 0E4      -0.599100
      3 CH3          6.5460     2.9310     0.7760 c3         1 0E4      -0.175100
      4 N            4.9560     1.5270    -0.4320 ns         1 0E4      -0.490900
      5 CA           3.7990     0.6330    -0.6950 c3         1 0E4       0.045700
      6 C1           2.4420     1.4130    -0.6740 c          1 0E4       0.607100
      7 O1           2.3660     2.6320    -0.5660 o          1 0E4      -0.607100
      8 CB           3.8080    -0.6460     0.1930 c3         1 0E4      -0.050100
      9 CG           5.1720    -1.3300     0.2420 ca         1 0E4      -0.110300
     10 CD1          5.9340    -1.3220     1.4280 ca         1 0E4      -0.068000
     11 CD2          5.6840    -1.9710    -0.9040 ca         1 0E4      -0.068000
     12 CE1          7.1940    -1.9450     1.4650 ca         1 0E4      -0.177000
     13 CE2          6.9430    -2.5930    -0.8640 ca         1 0E4      -0.177000
     14 CZ           7.6970    -2.5800     0.3190 ca         1 0E4       0.132100
     15 OH           8.9170    -3.1850     0.3480 oh         1 0E4      -0.538100
     16 N1           1.3090     0.6320    -0.7940 ns         1 0E4      -0.478900
     17 CA1         -0.0870     1.1340    -0.8080 c3         1 0E4       0.026700
     18 C2          -0.9980     0.1910     0.0350 c          1 0E4       0.593100
     19 O2          -0.6310    -0.9070     0.4390 o          1 0E4      -0.626100
     20 CB1         -0.6210     1.3310    -2.2630 c3         1 0E4      -0.066700
     21 CG1          0.1290     2.4490    -3.0250 c3         1 0E4      -0.087100
     22 CG2         -0.6360     0.0170    -3.0840 c3         1 0E4      -0.087100
     23 N2          -2.2610     0.6770     0.3010 ns         1 0E4      -0.480900
     24 CA2         -3.3030    -0.0300     1.0780 c3         1 0E4       0.025700
     25 C3          -4.7110     0.5450     0.7440 c          1 0E4       0.599100
     26 O3          -4.8740     1.5520     0.0620 o          1 0E4      -0.635100
     27 CB2         -2.9950     0.0340     2.5940 c3         1 0E4      -0.106100
     28 N3          -5.7730    -0.1540     1.2820 ns         1 0E4      -0.444900
     29 CA3         -7.2040     0.1670     1.0710 c3         1 0E4       0.005700
     30 C4          -7.9710     0.1580     2.4200 c          1 0E4       0.558900
     31 O4          -7.4990    -0.2420     3.4820 o          1 0E4      -0.551100
     32 CB3         -7.8630    -0.7800     0.0290 c3         1 0E4      -0.226400
     33 CG3         -7.2220    -0.6230    -1.3580 c          1 0E4       0.720000
     34 OD1         -7.6720     0.2380    -2.0990 o          1 0E4      -0.723000
     35 OD2         -6.2970    -1.3620    -1.6560 o          1 0E4      -0.723000
     36 H1           6.7650     3.3760     1.7540 hc         1 0E4       0.057033
     37 H2           7.3750     2.3100     0.4210 hc         1 0E4       0.057033
     38 H3           6.4720     3.6930    -0.0080 hc         1 0E4       0.057033
     39 H            5.5920     1.7240    -1.1960 hn         1 0E4       0.318500
     40 HA           3.9080     0.2890    -1.7320 h1         1 0E4       0.062700
     41 HB2          3.4750    -0.3850     1.2060 hc         1 0E4       0.071700
     42 HB3          3.0670    -1.3610    -0.1860 hc         1 0E4       0.071700
     43 HD1          5.5520    -0.8290     2.3200 ha         1 0E4       0.119000
     44 HD2          5.1060    -1.9860    -1.8260 ha         1 0E4       0.119000
     45 HE1          7.7710    -1.9290     2.3860 ha         1 0E4       0.118000
     46 HE2          7.3340    -3.0850    -1.7510 ha         1 0E4       0.118000
     47 HH           9.2940    -3.0790     1.2470 ho         1 0E4       0.462000
     48 H4           1.4470    -0.3710    -0.8470 hn         1 0E4       0.334500
     49 HA1         -0.1150     2.1060    -0.2960 h1         1 0E4       0.089700
     50 HB          -1.6630     1.6660    -2.1860 hc         1 0E4       0.064700
     51 HG11        -0.3520     2.6470    -3.9910 hc         1 0E4       0.036367
     52 HG12         0.1240     3.3830    -2.4490 hc         1 0E4       0.036367
     53 HG13         1.1710     2.1680    -3.2180 hc         1 0E4       0.036367
     54 HG21        -1.2300    -0.7560    -2.5820 hc         1 0E4       0.036367
     55 HG22        -1.0800     0.1860    -4.0730 hc         1 0E4       0.036367
     56 HG23         0.3790    -0.3700    -3.2320 hc         1 0E4       0.036367
     57 H5          -2.4980     1.5840    -0.0880 hn         1 0E4       0.339500
     58 HA2         -3.3130    -1.0830     0.7670 h1         1 0E4       0.085700
     59 HB1         -3.7390    -0.5280     3.1720 hc         1 0E4       0.047367
     60 HB21        -2.0110    -0.3960     2.8120 hc         1 0E4       0.047367
     61 HB31        -3.0010     1.0730     2.9460 hc         1 0E4       0.047367
     62 H6          -5.5440    -0.9560     1.8580 hn         1 0E4       0.321500
     63 HA3         -7.2910     1.1970     0.6990 h1         1 0E4       0.118700
     64 HB22        -7.7190    -1.8000     0.4060 hc         1 0E4       0.031200
     65 HB32        -8.9150    -0.4730    -0.0160 hc         1 0E4       0.031200
     66 HXT         -9.0100     0.5530     2.3750 h4         1 0E4      -0.026800
@<TRIPOS>BOND
     1     1     2 2   
     2     1     3 1   
     3     1     4 1   
     4     3    36 1   
     5     3    37 1   
     6     3    38 1   
     7     4     5 1   
     8     4    39 1   
     9     5     6 1   
    10     5     8 1   
    11     5    40 1   
    12     6     7 2   
    13     6    16 1   
    14     8     9 1   
    15     8    41 1   
    16     8    42 1   
    17     9    10 ar  
    18     9    11 ar  
    19    10    12 ar  
    20    10    43 1   
    21    11    13 ar  
    22    11    44 1   
    23    12    14 ar  
    24    12    45 1   
    25    13    14 ar  
    26    13    46 1   
    27    14    15 1   
    28    15    47 1   
    29    16    17 1   
    30    16    48 1   
    31    17    18 1   
    32    17    20 1   
    33    17    49 1   
    34    18    19 2   
    35    18    23 1   
    36    20    21 1   
    37    20    22 1   
    38    20    50 1   
    39    21    51 1   
    40    21    52 1   
    41    21    53 1   
    42    22    54 1   
    43    22    55 1   
    44    22    56 1   
    45    23    24 1   
    46    23    57 1   
    47    24    25 1   
    48    24    27 1   
    49    24    58 1   
    50    25    26 2   
    51    25    28 1   
    52    27    59 1   
    53    27    60 1   
    54    27    61 1   
    55    28    29 1   
    56    28    62 1   
    57    29    30 1   
    58    29    32 1   
    59    29    63 1   
    60    30    31 2   
    61    30    66 1   
    62    32    33 1   
    63    32    64 1   
    64    32    65 1   
    65    33    34 1   
    66    33    35 1   
@<TRIPOS>SUBSTRUCTURE
     1 0E4         1 TEMP              0 ****  ****    0 ROOT
