@<TRIPOS>MOLECULE
0E4
   66    66     1     0     0
SMALL
abcg2


@<TRIPOS>ATOM
      1 C            4.4060     1.7640     1.3530 c          1 0E4       0.602100
      2 O            3.3570     1.3980     1.8670 o          1 0E4      -0.599100
      3 CH3          5.4550     2.5270     2.1180 c3         1 0E4      -0.175100
      4 N            4.6880     1.5190     0.0630 ns         1 0E4      -0.490900
      5 CA           3.7970     0.7810    -0.7920 c3         1 0E4       0.045700
      6 C1           2.4380     1.4950    -0.8510 c          1 0E4       0.607100
      7 O1           2.3830     2.7130    -0.8680 o          1 0E4      -0.607100
      8 CB           3.7510    -0.7210    -0.4540 c3         1 0E4      -0.050100
      9 CG           5.1270    -1.3030    -0.3030 ca         1 0E4      -0.110300
     10 CD1          5.7010    -1.4690     0.9510 ca         1 0E4      -0.068000
     11 CD2          5.8840    -1.6580    -1.4170 ca         1 0E4      -0.068000
     12 CE1          6.9850    -1.9740     1.1000 ca         1 0E4      -0.177000
     13 CE2          7.1690    -2.1610    -1.2900 ca         1 0E4      -0.177000
     14 CZ           7.7290    -2.3210    -0.0240 ca         1 0E4       0.132100
     15 OH           8.9820    -2.8160     0.0540 oh         1 0E4      -0.538100
     16 N1           1.3610     0.7020    -0.9680 ns         1 0E4      -0.478900
     17 CA1          0.0090     1.1960    -1.0070 c3         1 0E4       0.026700
     18 C2          -0.8330     0.3770    -0.0300 c          1 0E4       0.593100
     19 O2          -0.4450    -0.6930     0.4180 o          1 0E4      -0.626100
     20 CB1         -0.6050     1.1500    -2.4240 c3         1 0E4      -0.066700
     21 CG1          0.1930     2.0140    -3.3930 c3         1 0E4      -0.087100
     22 CG2         -0.7450    -0.2730    -2.9510 c3         1 0E4      -0.087100
     23 N2          -2.0300     0.9060     0.2480 ns         1 0E4      -0.480900
     24 CA2         -3.0030     0.2670     1.1000 c3         1 0E4       0.025700
     25 C3          -4.3880     0.7460     0.6810 c          1 0E4       0.599100
     26 O3          -4.5560     1.8400     0.1630 o          1 0E4      -0.635100
     27 CB2         -2.7770     0.5930     2.5790 c3         1 0E4      -0.106100
     28 N3          -5.3800    -0.1080     0.9550 ns         1 0E4      -0.444900
     29 CA3         -6.7680     0.2460     0.8260 c3         1 0E4       0.005700
     30 C4          -7.2250     1.1350     1.9540 c          1 0E4       0.558900
     31 O4          -6.5390     1.4820     2.8800 o          1 0E4      -0.551100
     32 CB3         -7.6420    -0.9990     0.7500 c3         1 0E4      -0.226400
     33 CG3         -7.4130    -1.8200    -0.5400 c          1 0E4       0.720000
     34 OD1         -7.1650    -1.1740    -1.5750 o          1 0E4      -0.723000
     35 OD2         -7.5330    -3.0540    -0.4310 o          1 0E4      -0.723000
     36 H1           5.7010     1.9910     3.0340 hc         1 0E4       0.057033
     37 H2           6.3710     2.6900     1.5540 hc         1 0E4       0.057033
     38 H3           5.0530     3.4980     2.4070 hc         1 0E4       0.057033
     39 H            5.5690     1.8210    -0.3160 hn         1 0E4       0.318500
     40 HA           4.2040     0.8770    -1.8030 h1         1 0E4       0.062700
     41 HB2          3.1820    -0.8820     0.4630 hc         1 0E4       0.071700
     42 HB3          3.2270    -1.2450    -1.2590 hc         1 0E4       0.071700
     43 HD1          5.1360    -1.2070     1.8380 ha         1 0E4       0.119000
     44 HD2          5.4650    -1.5430    -2.4100 ha         1 0E4       0.119000
     45 HE1          7.4030    -2.0990     2.0920 ha         1 0E4       0.118000
     46 HE2          7.7390    -2.4320    -2.1700 ha         1 0E4       0.118000
     47 HH           9.2590    -2.8800     0.9740 ho         1 0E4       0.462000
     48 H4           1.4620    -0.2870    -0.8030 hn         1 0E4       0.334500
     49 HA1          0.0180     2.2370    -0.6750 h1         1 0E4       0.089700
     50 HB          -1.6060     1.5850    -2.3400 hc         1 0E4       0.064700
     51 HG11        -0.3220     2.0740    -4.3520 hc         1 0E4       0.036367
     52 HG12         0.3210     3.0300    -3.0190 hc         1 0E4       0.036367
     53 HG13         1.1830     1.5960    -3.5810 hc         1 0E4       0.036367
     54 HG21        -1.4080    -0.8840    -2.3360 hc         1 0E4       0.036367
     55 HG22        -1.1610    -0.2610    -3.9590 hc         1 0E4       0.036367
     56 HG23         0.2220    -0.7770    -3.0040 hc         1 0E4       0.036367
     57 H5          -2.2720     1.8160    -0.1170 hn         1 0E4       0.339500
     58 HA2         -2.9320    -0.8130     0.9560 h1         1 0E4       0.085700
     59 HB1         -3.5130     0.0920     3.2070 hc         1 0E4       0.047367
     60 HB21        -1.7870     0.2590     2.8860 hc         1 0E4       0.047367
     61 HB31        -2.8510     1.6660     2.7530 hc         1 0E4       0.047367
     62 H6          -5.1580    -0.9730     1.4240 hn         1 0E4       0.321500
     63 HA3         -6.9180     0.8070    -0.1020 h1         1 0E4       0.118700
     64 HB22        -7.4970    -1.6220     1.6360 hc         1 0E4       0.031200
     65 HB32        -8.6920    -0.6880     0.7650 hc         1 0E4       0.031200
     66 HXT         -8.2790     1.4580     1.8640 h4         1 0E4      -0.026800
@<TRIPOS>BOND
     1     1     2 2   
     2     1     3 1   
     3     1     4 1   
     4     3    36 1   
     5     3    37 1   
     6     3    38 1   
     7     4     5 1   
     8     4    39 1   
     9     5     6 1   
    10     5     8 1   
    11     5    40 1   
    12     6     7 2   
    13     6    16 1   
    14     8     9 1   
    15     8    41 1   
    16     8    42 1   
    17     9    10 ar  
    18     9    11 ar  
    19    10    12 ar  
    20    10    43 1   
    21    11    13 ar  
    22    11    44 1   
    23    12    14 ar  
    24    12    45 1   
    25    13    14 ar  
    26    13    46 1   
    27    14    15 1   
    28    15    47 1   
    29    16    17 1   
    30    16    48 1   
    31    17    18 1   
    32    17    20 1   
    33    17    49 1   
    34    18    19 2   
    35    18    23 1   
    36    20    21 1   
    37    20    22 1   
    38    20    50 1   
    39    21    51 1   
    40    21    52 1   
    41    21    53 1   
    42    22    54 1   
    43    22    55 1   
    44    22    56 1   
    45    23    24 1   
    46    23    57 1   
    47    24    25 1   
    48    24    27 1   
    49    24    58 1   
    50    25    26 2   
    51    25    28 1   
    52    27    59 1   
    53    27    60 1   
    54    27    61 1   
    55    28    29 1   
    56    28    62 1   
    57    29    30 1   
    58    29    32 1   
    59    29    63 1   
    60    30    31 2   
    61    30    66 1   
    62    32    33 1   
    63    32    64 1   
    64    32    65 1   
    65    33    34 1   
    66    33    35 1   
@<TRIPOS>SUBSTRUCTURE
     1 0E4         1 TEMP              0 ****  ****    0 ROOT
