@<TRIPOS>MOLECULE
0E5
   22    21     1     0     0
SMALL
No Charge or Current Charge


@<TRIPOS>ATOM
      1 C1           2.7970    -1.3620     0.2170 c3         1 0E5      -0.077100
      2 C2           1.3870    -1.0320    -0.3340 c3         1 0E5      -0.093400
      3 C3           0.8150     0.3850     0.0090 c3         1 0E5       0.172000
      4 C4           1.7890     1.5020    -0.4730 c3         1 0E5      -0.085100
      5 N1          -1.1730     1.9710    -0.3900 n8         1 0E5      -0.974200
      6 C19         -0.6260     0.5710    -0.6100 c3         1 0E5      -0.006500
      7 C20         -1.5930    -0.5840    -0.1290 c          1 0E5       0.729000
      8 O6          -1.7080    -0.7620     1.0800 o          1 0E5      -0.722000
      9 H1           3.5650    -0.7380    -0.2530 hc         1 0E5       0.017700
     10 H2           2.8430    -1.2190     1.3030 hc         1 0E5       0.017700
     11 H3           3.0470    -2.4080     0.0040 hc         1 0E5       0.017700
     12 H4           1.4100    -1.1500    -1.4240 hc         1 0E5       0.045700
     13 H5           0.7090    -1.8080     0.0400 hc         1 0E5       0.045700
     14 H6           1.9260     1.4510    -1.5600 hc         1 0E5       0.020367
     15 H7           1.4200     2.5030    -0.2230 hc         1 0E5       0.020367
     16 H8           2.7730     1.4060    -0.0020 hc         1 0E5       0.020367
     17 H30         -1.2800     2.1240     0.6200 hn         1 0E5       0.373000
     18 H31         -0.5220     0.4470    -1.6970 h1         1 0E5       0.046700
     19 OXT         -2.2100    -1.2250    -0.9700 o          1 0E5      -0.722000
     20 H10         -0.4560     2.6530    -0.6580 hn         1 0E5       0.373000
     21 O3           0.6830     0.4900     1.4310 oh         1 0E5      -0.731000
     22 H9          -0.1860     0.0420     1.6210 ho         1 0E5       0.510000
@<TRIPOS>BOND
     1     1     2 1   
     2     1     9 1   
     3     1    10 1   
     4     1    11 1   
     5     2     3 1   
     6     2    12 1   
     7     2    13 1   
     8     3     4 1   
     9     3     6 1   
    10     3    21 1   
    11     4    14 1   
    12     4    15 1   
    13     4    16 1   
    14     5     6 1   
    15     5    17 1   
    16     5    20 1   
    17     6     7 1   
    18     6    18 1   
    19     7     8 1   
    20     7    19 1   
    21    21    22 1   
@<TRIPOS>SUBSTRUCTURE
     1 0E5         1 TEMP              0 ****  ****    0 ROOT
