@<TRIPOS>MOLECULE
0E5
   22    21     1     0     0
SMALL
bcc


@<TRIPOS>ATOM
      1 C1           2.7610    -1.3420     0.2200 c3         1 0E5      -0.077100
      2 C2           1.3940    -1.0080    -0.3620 c3         1 0E5      -0.093400
      3 C3           0.8350     0.3710     0.0370 c3         1 0E5       0.148800
      4 C4           1.7770     1.4740    -0.4280 c3         1 0E5      -0.085100
      5 N1          -1.1930     1.8450    -0.4000 n8         1 0E5      -0.863800
      6 C19         -0.5620     0.5450    -0.6180 c3         1 0E5      -0.006500
      7 C20         -1.5700    -0.5120    -0.1170 c          1 0E5       0.939600
      8 O6          -1.5940    -0.7030     1.1310 o          1 0E5      -0.827300
      9 H1           3.5520    -0.7160    -0.1950 hc         1 0E5       0.017700
     10 H2           2.7710    -1.2180     1.3030 hc         1 0E5       0.017700
     11 H3           3.0260    -2.3780     0.0050 hc         1 0E5       0.017700
     12 H4           1.4380    -1.0710    -1.4540 hc         1 0E5       0.045700
     13 H5           0.6890    -1.7840    -0.0460 hc         1 0E5       0.045700
     14 H6           1.8860     1.4610    -1.5140 hc         1 0E5       0.020367
     15 H7           1.4140     2.4610    -0.1350 hc         1 0E5       0.020367
     16 H8           2.7710     1.3580     0.0040 hc         1 0E5       0.020367
     17 H30         -1.1710     2.0660     0.5890 hn         1 0E5       0.317800
     18 H31         -0.4400     0.4220    -1.6980 h1         1 0E5       0.046700
     19 OXT         -2.3080    -1.0660    -0.9440 o          1 0E5      -0.827300
     20 H10         -0.6630     2.5730    -0.8620 hn         1 0E5       0.317800
     21 O3           0.7180     0.4780     1.4430 oh         1 0E5      -0.668800
     22 H9          -0.1210     0.0020     1.6410 ho         1 0E5       0.471000
@<TRIPOS>BOND
     1     1     2 1   
     2     1     9 1   
     3     1    10 1   
     4     1    11 1   
     5     2     3 1   
     6     2    12 1   
     7     2    13 1   
     8     3     4 1   
     9     3     6 1   
    10     3    21 1   
    11     4    14 1   
    12     4    15 1   
    13     4    16 1   
    14     5     6 1   
    15     5    17 1   
    16     5    20 1   
    17     6     7 1   
    18     6    18 1   
    19     7     8 1   
    20     7    19 1   
    21    21    22 1   
@<TRIPOS>SUBSTRUCTURE
     1 0E5         1 TEMP              0 ****  ****    0 ROOT
