@<TRIPOS>MOLECULE
0E6
   69    70     1     0     0
SMALL
bcc


@<TRIPOS>ATOM
      1 C1           8.9690    64.5210    46.8180 c          1 0E6       0.762100
      2 O1           9.6460    64.1250    47.7440 o          1 0E6      -0.618000
      3 O2           8.1810    65.6020    46.8770 os         1 0E6      -0.420900
      4 C2           8.1340    66.3010    48.1200 c3         1 0E6       0.210700
      5 C3           9.3720    67.1130    48.3810 ca         1 0E6      -0.136300
      6 C4           9.8400    68.0170    47.4300 ca         1 0E6      -0.101500
      7 C5          10.9620    68.7900    47.6870 ca         1 0E6      -0.129000
      8 C6          11.6250    68.6770    48.9030 ca         1 0E6      -0.108000
      9 C7          11.1620    67.7820    49.8570 ca         1 0E6      -0.129000
     10 C8          10.0450    67.0000    49.5920 ca         1 0E6      -0.101500
     11 N            8.8930    63.9500    45.6020 ns         1 0E6      -0.561900
     12 CA           9.5820    62.7370    45.2560 c3         1 0E6       0.043700
     13 C           10.2140    62.8980    43.8750 c          1 0E6       0.660100
     14 O            9.7830    63.6910    43.0590 o          1 0E6      -0.566100
     15 CB           8.6430    61.5160    45.2320 c3         1 0E6      -0.094400
     16 CG           7.9550    61.2290    46.5600 c3         1 0E6      -0.100400
     17 CD           8.9270    60.7730    47.6450 c3         1 0E6       0.022300
     18 NE           8.2890    60.5720    48.9330 nu         1 0E6      -0.398100
     19 CZ           7.5980    59.4980    49.2980 cz         1 0E6       0.529300
     20 NH1          7.4950    58.4470    48.4950 nv         1 0E6      -0.512700
     21 NH2          7.0120    59.4670    50.4900 nv         1 0E6      -0.512700
     22 C21         11.9640    60.5930    41.8060 c          1 0E6       0.562100
     23 O21         12.8820    60.1890    41.1420 o          1 0E6      -0.463100
     24 C31         11.9500    62.0070    42.3840 c3         1 0E6       0.011700
     25 N3          11.2360    62.0530    43.6340 ns         1 0E6      -0.564900
     26 C41         13.3450    62.5900    42.5200 c3         1 0E6       0.127400
     27 O3          14.0220    61.8470    43.4980 os         1 0E6      -0.426600
     28 C16         15.2700    62.3930    43.8550 c3         1 0E6       0.185700
     29 C9          15.8080    61.6460    45.0410 ca         1 0E6      -0.088300
     30 C10         15.0280    61.4880    46.1870 ca         1 0E6      -0.110500
     31 C12         15.5280    60.8130    47.2900 ca         1 0E6      -0.130500
     32 C13         16.8160    60.2890    47.2670 ca         1 0E6      -0.118000
     33 C14         17.5980    60.4450    46.1330 ca         1 0E6      -0.130500
     34 C15         17.0930    61.1160    45.0250 ca         1 0E6      -0.110500
     35 CL           9.2600    60.5270    41.5560 cl         1 0E6      -0.169400
     36 H21          7.2660    66.9540    48.0260 h1         1 0E6       0.063200
     37 H22          7.9440    65.6110    48.9440 h1         1 0E6       0.063200
     38 H41          9.3260    68.1210    46.4810 ha         1 0E6       0.130500
     39 H51         11.3170    69.4880    46.9390 ha         1 0E6       0.137500
     40 H61         12.4980    69.2840    49.1050 ha         1 0E6       0.139000
     41 H71         11.6750    67.6860    50.8060 ha         1 0E6       0.137500
     42 H81          9.6930    66.2950    50.3360 ha         1 0E6       0.130500
     43 H            8.2760    64.3510    44.9110 hn         1 0E6       0.356500
     44 HA          10.3740    62.5810    45.9900 h1         1 0E6       0.082700
     45 HB2          7.8810    61.6840    44.4660 hc         1 0E6       0.069200
     46 HB3          9.2100    60.6370    44.9160 hc         1 0E6       0.069200
     47 HG2          7.4090    62.1090    46.9080 hc         1 0E6       0.057700
     48 HG3          7.2030    60.4530    46.3930 hc         1 0E6       0.057700
     49 HD2          9.4530    59.8650    47.3410 h1         1 0E6       0.086200
     50 HD3          9.6970    61.5220    47.8120 h1         1 0E6       0.086200
     51 HE           8.2870    61.3600    49.5620 hn         1 0E6       0.327700
     52 HH11         7.0130    57.6150    48.7920 hn         1 0E6       0.328450
     53 HH12         7.9600    58.4060    47.6040 hn         1 0E6       0.328450
     54 HH21         6.4630    58.6750    50.7790 hn         1 0E6       0.328450
     55 HH22         7.0250    60.2640    51.1040 hn         1 0E6       0.328450
     56 H3          11.3990    62.6250    41.6670 h1         1 0E6       0.121700
     57 HN32        11.6180    61.5280    44.4070 hn         1 0E6       0.321500
     58 H411        13.8660    62.5710    41.5560 h1         1 0E6       0.051700
     59 H42         13.2490    63.6430    42.8170 h1         1 0E6       0.051700
     60 H'1         15.9790    62.3360    43.0180 h1         1 0E6       0.038700
     61 H'2         15.1590    63.4580    44.1040 h1         1 0E6       0.038700
     62 H2          14.0260    61.8980    46.2200 ha         1 0E6       0.128500
     63 H9          14.9120    60.6970    48.1730 ha         1 0E6       0.130500
     64 H4          17.2050    59.7640    48.1290 ha         1 0E6       0.134000
     65 H5          18.6010    60.0380    46.1040 ha         1 0E6       0.130500
     66 H6          17.7070    61.2240    44.1380 ha         1 0E6       0.128500
     67 H11         10.8550    58.7810    41.5080 h1         1 0E6       0.082700
     68 H12         10.6710    59.4750    43.1330 h1         1 0E6       0.082700
     69 C11         10.7640    59.7060    42.0720 c3         1 0E6      -0.062000
@<TRIPOS>BOND
     1     1     2 2   
     2     1     3 1   
     3     1    11 1   
     4     3     4 1   
     5     4     5 1   
     6     4    36 1   
     7     4    37 1   
     8     5     6 ar  
     9     5    10 ar  
    10     6     7 ar  
    11     6    38 1   
    12     7     8 ar  
    13     7    39 1   
    14     8     9 ar  
    15     8    40 1   
    16     9    10 ar  
    17     9    41 1   
    18    10    42 1   
    19    11    12 1   
    20    11    43 1   
    21    12    13 1   
    22    12    15 1   
    23    12    44 1   
    24    13    14 2   
    25    13    25 1   
    26    15    16 1   
    27    15    45 1   
    28    15    46 1   
    29    16    17 1   
    30    16    47 1   
    31    16    48 1   
    32    17    18 1   
    33    17    49 1   
    34    17    50 1   
    35    18    19 2   
    36    18    51 1   
    37    19    20 1   
    38    19    21 1   
    39    20    52 1   
    40    20    53 1   
    41    21    54 1   
    42    21    55 1   
    43    22    23 2   
    44    22    24 1   
    45    22    69 1   
    46    24    25 1   
    47    24    26 1   
    48    24    56 1   
    49    25    57 1   
    50    26    27 1   
    51    26    58 1   
    52    26    59 1   
    53    27    28 1   
    54    28    29 1   
    55    28    60 1   
    56    28    61 1   
    57    29    30 ar  
    58    29    34 ar  
    59    30    31 ar  
    60    30    62 1   
    61    31    32 ar  
    62    31    63 1   
    63    32    33 ar  
    64    32    64 1   
    65    33    34 ar  
    66    33    65 1   
    67    34    66 1   
    68    35    69 1   
    69    67    69 1   
    70    68    69 1   
@<TRIPOS>SUBSTRUCTURE
     1 0E6         1 TEMP              0 ****  ****    0 ROOT
