@<TRIPOS>MOLECULE
0E6
   69    70     1     0     0
SMALL
No Charge or Current Charge


@<TRIPOS>ATOM
      1 C1           9.4800    64.1210    47.1110 c          1 0E6       0.646100
      2 O1          10.0520    63.4250    47.9340 o          1 0E6      -0.569000
      3 O2           9.2080    65.4490    47.2290 os         1 0E6      -0.444100
      4 C2           9.7570    66.1590    48.3540 c3         1 0E6       0.233900
      5 C3          11.2690    66.3140    48.1780 ca         1 0E6      -0.136300
      6 C4          11.8130    66.7090    46.9370 ca         1 0E6      -0.083500
      7 C5          13.2030    66.8450    46.7800 ca         1 0E6      -0.111000
      8 C6          14.0610    66.5950    47.8640 ca         1 0E6      -0.090000
      9 C7          13.5270    66.2110    49.1050 ca         1 0E6      -0.111000
     10 C8          12.1370    66.0680    49.2620 ca         1 0E6      -0.083500
     11 N            9.0830    63.7100    45.8720 ns         1 0E6      -0.494900
     12 CA           9.3660    62.3840    45.2820 c3         1 0E6       0.043700
     13 C            9.9410    62.5720    43.8500 c          1 0E6       0.593100
     14 O            9.7000    63.5520    43.1550 o          1 0E6      -0.566100
     15 CB           8.0960    61.4910    45.2690 c3         1 0E6      -0.094400
     16 CG           7.5020    61.1590    46.6610 c3         1 0E6      -0.100400
     17 CD           8.4230    60.2930    47.5470 c3         1 0E6       0.051600
     18 NE           7.7560    59.9900    48.8300 nu         1 0E6      -0.883000
     19 CZ           7.0400    58.9390    49.1740 cz         1 0E6       0.934600
     20 NH1          6.6380    58.0850    48.2800 nv         1 0E6      -0.613300
     21 NH2          6.6730    58.8050    50.4130 nv         1 0E6      -0.613300
     22 C21         12.2540    60.2910    41.8450 c          1 0E6       0.562100
     23 O21         13.4420    60.0110    41.9680 o          1 0E6      -0.463100
     24 C31         11.6620    61.6750    42.2230 c3         1 0E6       0.011700
     25 N3          10.7750    61.5620    43.4140 ns         1 0E6      -0.497900
     26 C41         12.7480    62.7670    42.4320 c3         1 0E6       0.150600
     27 O3          13.3090    62.6010    43.7490 os         1 0E6      -0.473000
     28 C16         14.1570    63.6740    44.1910 c3         1 0E6       0.208900
     29 C9          14.5000    63.4430    45.6570 ca         1 0E6      -0.088300
     30 C10         13.4690    63.3020    46.6080 ca         1 0E6      -0.092500
     31 C12         13.7760    63.0850    47.9620 ca         1 0E6      -0.112500
     32 C13         15.1160    63.0170    48.3770 ca         1 0E6      -0.100000
     33 C14         16.1490    63.1620    47.4360 ca         1 0E6      -0.112500
     34 C15         15.8430    63.3730    46.0800 ca         1 0E6      -0.092500
     35 Cl          11.0060    59.4620    39.4750 cl         1 0E6      -0.246000
     36 H21          9.3110    67.1600    48.4170 h1         1 0E6       0.063200
     37 H22          9.5290    65.6390    49.2940 h1         1 0E6       0.063200
     38 H41         11.1580    66.9070    46.0910 ha         1 0E6       0.112500
     39 H51         13.6150    67.1420    45.8190 ha         1 0E6       0.119500
     40 H61         15.1370    66.6960    47.7410 ha         1 0E6       0.121000
     41 H71         14.1910    66.0140    49.9440 ha         1 0E6       0.119500
     42 H81         11.7360    65.7630    50.2260 ha         1 0E6       0.112500
     43 H            8.6720    64.4260    45.2860 hn         1 0E6       0.356500
     44 HA          10.1510    61.8920    45.8720 h1         1 0E6       0.082700
     45 HB2          7.3240    61.9890    44.6690 hc         1 0E6       0.069200
     46 HB3          8.3240    60.5500    44.7510 hc         1 0E6       0.069200
     47 HG2          7.2570    62.0890    47.1890 hc         1 0E6       0.057700
     48 HG3          6.5530    60.6300    46.5120 hc         1 0E6       0.057700
     49 HD2          8.6970    59.3720    47.0110 h1         1 0E6       0.086200
     50 HD3          9.3570    60.8390    47.7400 h1         1 0E6       0.086200
     51 HE           7.9090    60.6680    49.5690 hn         1 0E6       0.378000
     52 HH11         6.0500    57.3020    48.5120 hn         1 0E6       0.378750
     53 HH12         6.8340    58.2330    47.3050 hn         1 0E6       0.378750
     54 HH21         6.1220    58.0210    50.7220 hn         1 0E6       0.378750
     55 HH22         6.9930    59.4370    51.1270 hn         1 0E6       0.378750
     56 H3          11.0490    61.9780    41.3640 h1         1 0E6       0.121700
     57 HN32        10.9490    60.8100    44.0740 hn         1 0E6       0.321500
     58 H411        13.5210    62.6970    41.6540 h1         1 0E6       0.051700
     59 H42         12.2740    63.7540    42.3440 h1         1 0E6       0.051700
     60 H'1         15.0730    63.7170    43.5870 h1         1 0E6       0.038700
     61 H'2         13.6420    64.6400    44.0980 h1         1 0E6       0.038700
     62 H2          12.4300    63.3630    46.2960 ha         1 0E6       0.110500
     63 H9          12.9730    62.9800    48.6890 ha         1 0E6       0.112500
     64 H4          15.3530    62.8540    49.4270 ha         1 0E6       0.116000
     65 H5          17.1870    63.1100    47.7560 ha         1 0E6       0.112500
     66 H6          16.6490    63.4830    45.3580 ha         1 0E6       0.110500
     67 H11         11.6240    58.2630    41.4660 h1         1 0E6       0.082700
     68 H12         10.2810    59.4060    41.7650 h1         1 0E6       0.082700
     69 C11         11.2530    59.2770    41.2740 c3         1 0E6       0.014600
@<TRIPOS>BOND
     1     1     2 2   
     2     1     3 1   
     3     1    11 1   
     4     3     4 1   
     5     4     5 1   
     6     4    36 1   
     7     4    37 1   
     8     5     6 ar  
     9     5    10 ar  
    10     6     7 ar  
    11     6    38 1   
    12     7     8 ar  
    13     7    39 1   
    14     8     9 ar  
    15     8    40 1   
    16     9    10 ar  
    17     9    41 1   
    18    10    42 1   
    19    11    12 1   
    20    11    43 1   
    21    12    13 1   
    22    12    15 1   
    23    12    44 1   
    24    13    14 2   
    25    13    25 1   
    26    15    16 1   
    27    15    45 1   
    28    15    46 1   
    29    16    17 1   
    30    16    47 1   
    31    16    48 1   
    32    17    18 1   
    33    17    49 1   
    34    17    50 1   
    35    18    19 2   
    36    18    51 1   
    37    19    20 1   
    38    19    21 1   
    39    20    52 1   
    40    20    53 1   
    41    21    54 1   
    42    21    55 1   
    43    22    23 2   
    44    22    24 1   
    45    22    69 1   
    46    24    25 1   
    47    24    26 1   
    48    24    56 1   
    49    25    57 1   
    50    26    27 1   
    51    26    58 1   
    52    26    59 1   
    53    27    28 1   
    54    28    29 1   
    55    28    60 1   
    56    28    61 1   
    57    29    30 ar  
    58    29    34 ar  
    59    30    31 ar  
    60    30    62 1   
    61    31    32 ar  
    62    31    63 1   
    63    32    33 ar  
    64    32    64 1   
    65    33    34 ar  
    66    33    65 1   
    67    34    66 1   
    68    35    69 1   
    69    67    69 1   
    70    68    69 1   
@<TRIPOS>SUBSTRUCTURE
     1 0E6         1 TEMP              0 ****  ****    0 ROOT
