@<TRIPOS>MOLECULE
0E7
   78    79     1     0     0
SMALL
No Charge or Current Charge


@<TRIPOS>ATOM
      1 C            3.8350     0.6610     0.4570 c          1 0E7       0.609100
      2 O            3.8550     0.6780     1.6790 o          1 0E7      -0.599100
      3 CA           5.1090     0.7620    -0.3860 c3         1 0E7      -0.155400
      4 CB           5.9210    -0.5560    -0.3550 c3         1 0E7      -0.079400
      5 CD           7.2180    -0.4860    -1.1860 c3         1 0E7       0.217800
      6 NE           7.9500    -1.7570    -1.1100 nu         1 0E7      -0.899400
      7 CZ           9.1110    -1.9790    -1.7030 c2         1 0E7       0.786100
      8 NH1          9.7130    -1.1690    -2.4350 n2         1 0E7      -0.893100
      9 NH2          9.4130    -3.2270    -1.4610 nv         1 0E7      -1.066200
     10 N            2.6670     0.5680    -0.2650 ns         1 0E7      -0.499900
     11 CA1          1.3030     0.5440     0.3170 c3         1 0E7       0.038700
     12 C1           0.4060    -0.4780    -0.4350 c          1 0E7       0.600100
     13 O1           0.7360    -1.0270    -1.4800 o          1 0E7      -0.623100
     14 CB1          0.6650     1.9610     0.3090 c3         1 0E7      -0.047100
     15 CG           1.5140     3.0170     1.0070 ca         1 0E7      -0.081300
     16 CD1          2.3490     3.8700     0.2580 ca         1 0E7      -0.100500
     17 CD2          1.4700     3.1480     2.4080 ca         1 0E7      -0.100500
     18 CE1          3.1340     4.8400     0.9050 ca         1 0E7      -0.107000
     19 CE2          2.2540     4.1190     3.0550 ca         1 0E7      -0.107000
     20 CZ1          3.0870     4.9650     2.3030 ca         1 0E7      -0.105000
     21 N1          -0.8120    -0.7380     0.1530 ns         1 0E7      -0.478900
     22 CA2         -1.8950    -1.5800    -0.4240 c3         1 0E7      -0.012300
     23 CB2         -1.5610    -3.0990    -0.4600 c3         1 0E7       0.176300
     24 CG2         -1.0210    -3.6610     0.8730 c3         1 0E7      -0.094100
     25 OG1         -0.6020    -3.3490    -1.4900 oh         1 0E7      -0.648000
     26 C2          -3.2040    -1.3230     0.3600 c          1 0E7       0.601100
     27 O2          -3.2130    -0.8910     1.5060 o          1 0E7      -0.599100
     28 N2          -4.3660    -1.5810    -0.3350 ns         1 0E7      -0.484900
     29 CA3         -5.7160    -1.1560     0.1080 c3         1 0E7       0.058700
     30 C3          -6.7840    -2.2170    -0.2630 c          1 0E7       0.574100
     31 CB3         -6.0830     0.2430    -0.4550 c3         1 0E7      -0.037100
     32 CG1         -5.0010     1.2950    -0.2180 ca         1 0E7      -0.089300
     33 CD11        -4.0530     1.5820    -1.2210 ca         1 0E7      -0.105500
     34 CD21        -4.9240     1.9680     1.0170 ca         1 0E7      -0.105500
     35 CE11        -3.0360     2.5250    -0.9890 ca         1 0E7      -0.105000
     36 CE21        -3.9090     2.9140     1.2470 ca         1 0E7      -0.105000
     37 CZ2         -2.9640     3.1920     0.2450 ca         1 0E7      -0.104000
     38 O3          -6.5990    -3.1320    -1.0580 o          1 0E7      -0.478000
     39 CM          -9.0290    -2.9570     0.2170 c3         1 0E7       0.150900
     40 OXT         -7.9460    -2.0350     0.4440 os         1 0E7      -0.441100
     41 HA1          4.8520     0.9890    -1.4280 hc         1 0E7       0.060700
     42 HA2          5.7340     1.5650     0.0230 hc         1 0E7       0.060700
     43 HB1          6.1750    -0.7980     0.6850 hc         1 0E7       0.059200
     44 HB2          5.2930    -1.3730    -0.7310 hc         1 0E7       0.059200
     45 HD1          6.9660    -0.2580    -2.2320 h1         1 0E7       0.049200
     46 HD2          7.8450     0.3320    -0.8040 h1         1 0E7       0.049200
     47 HNE          7.3920    -2.5980    -1.0600 hn         1 0E7       0.470000
     48 HH1         10.5430    -1.6400    -2.8070 hn         1 0E7       0.375400
     49 HH21         9.2070    -3.4670    -0.5020 hn         1 0E7       0.451500
     50 HH22        10.3510    -3.4760    -1.7430 hn         1 0E7       0.451500
     51 H            2.7560     0.5170    -1.2730 hn         1 0E7       0.325500
     52 HA           1.3660     0.1960     1.3570 h1         1 0E7       0.096700
     53 HB21         0.4780     2.2580    -0.7310 hc         1 0E7       0.060700
     54 HB3         -0.3210     1.9160     0.7860 hc         1 0E7       0.060700
     55 HD11         2.3940     3.7790    -0.8250 ha         1 0E7       0.109000
     56 HD21         0.8300     2.4950     2.9980 ha         1 0E7       0.109000
     57 HE1          3.7790     5.4940     0.3220 ha         1 0E7       0.112000
     58 HE2          2.2170     4.2150     4.1380 ha         1 0E7       0.112000
     59 HZ           3.6950     5.7160     2.8040 ha         1 0E7       0.112000
     60 H1          -1.0100    -0.2560     1.0250 hn         1 0E7       0.344500
     61 HA3         -2.0820    -1.2380    -1.4510 h1         1 0E7       0.080700
     62 HB          -2.4830    -3.6450    -0.7000 h1         1 0E7       0.029700
     63 HG21        -1.7370    -3.4890     1.6850 hc         1 0E7       0.053700
     64 HG22        -0.8580    -4.7430     0.7920 hc         1 0E7       0.053700
     65 HG23        -0.0680    -3.1940     1.1480 hc         1 0E7       0.053700
     66 HG1         -0.0440    -2.5270    -1.5470 ho         1 0E7       0.454000
     67 HN2         -4.2700    -1.9680    -1.2670 hn         1 0E7       0.326500
     68 HA4         -5.7230    -1.0940     1.2040 h1         1 0E7       0.105700
     69 HBC1        -6.2790     0.1500    -1.5310 hc         1 0E7       0.065700
     70 HBC2        -7.0290     0.5730    -0.0070 hc         1 0E7       0.065700
     71 HD12        -4.0970     1.0670    -2.1780 ha         1 0E7       0.110500
     72 HD22        -5.6450     1.7520     1.8020 ha         1 0E7       0.110500
     73 HE11        -2.3050     2.7380    -1.7660 ha         1 0E7       0.116000
     74 HE21        -3.8530     3.4280     2.2040 ha         1 0E7       0.116000
     75 HZ1         -2.1780     3.9220     0.4250 ha         1 0E7       0.116000
     76 HMC1        -9.3510    -2.9320    -0.8330 h1         1 0E7       0.051367
     77 HMC2        -8.7290    -3.9830     0.4650 h1         1 0E7       0.051367
     78 HMC3        -9.8920    -2.6940     0.8420 h1         1 0E7       0.051367
@<TRIPOS>BOND
     1     1     2 2   
     2     1     3 1   
     3     1    10 1   
     4     3     4 1   
     5     3    41 1   
     6     3    42 1   
     7     4     5 1   
     8     4    43 1   
     9     4    44 1   
    10     5     6 1   
    11     5    45 1   
    12     5    46 1   
    13     6     7 1   
    14     6    47 1   
    15     7     8 2   
    16     7     9 1   
    17     8    48 1   
    18     9    49 1   
    19     9    50 1   
    20    10    11 1   
    21    10    51 1   
    22    11    12 1   
    23    11    14 1   
    24    11    52 1   
    25    12    13 2   
    26    12    21 1   
    27    14    15 1   
    28    14    53 1   
    29    14    54 1   
    30    15    16 ar  
    31    15    17 ar  
    32    16    18 ar  
    33    16    55 1   
    34    17    19 ar  
    35    17    56 1   
    36    18    20 ar  
    37    18    57 1   
    38    19    20 ar  
    39    19    58 1   
    40    20    59 1   
    41    21    22 1   
    42    21    60 1   
    43    22    23 1   
    44    22    26 1   
    45    22    61 1   
    46    23    24 1   
    47    23    25 1   
    48    23    62 1   
    49    24    63 1   
    50    24    64 1   
    51    24    65 1   
    52    25    66 1   
    53    26    27 2   
    54    26    28 1   
    55    28    29 1   
    56    28    67 1   
    57    29    30 1   
    58    29    31 1   
    59    29    68 1   
    60    30    38 2   
    61    30    40 1   
    62    31    32 1   
    63    31    69 1   
    64    31    70 1   
    65    32    33 ar  
    66    32    34 ar  
    67    33    35 ar  
    68    33    71 1   
    69    34    36 ar  
    70    34    72 1   
    71    35    37 ar  
    72    35    73 1   
    73    36    37 ar  
    74    36    74 1   
    75    37    75 1   
    76    39    40 1   
    77    39    76 1   
    78    39    77 1   
    79    39    78 1   
@<TRIPOS>SUBSTRUCTURE
     1 0E7         1 TEMP              0 ****  ****    0 ROOT
