@<TRIPOS>MOLECULE
0E7
   78    79     1     0     0
SMALL
bcc


@<TRIPOS>ATOM
      1 C            3.6940    -0.2900     0.0970 c          1 0E7       0.676100
      2 O            3.6210    -0.8710     1.1680 o          1 0E7      -0.599100
      3 CA           4.9550    -0.2610    -0.7410 c3         1 0E7      -0.155400
      4 CB           6.1460    -0.9300    -0.0770 c3         1 0E7      -0.079400
      5 CD           7.3500    -0.9390    -1.0060 c3         1 0E7       0.217800
      6 NE           8.4740    -1.5780    -0.3610 nu         1 0E7      -0.844200
      7 CZ           9.7010    -1.6020    -0.9710 c2         1 0E7       0.786100
      8 NH1          9.9170    -0.9190    -2.0340 n2         1 0E7      -0.893100
      9 NH2         10.6050    -2.4330    -0.3400 nv         1 0E7      -0.955800
     10 N            2.6550     0.3690    -0.4570 ns         1 0E7      -0.566900
     11 CA1          1.3910     0.5690     0.1990 c3         1 0E7       0.038700
     12 C1           0.2580     0.2140    -0.7550 c          1 0E7       0.667100
     13 O1           0.2660     0.6080    -1.9120 o          1 0E7      -0.623100
     14 CB1          1.2160     2.0290     0.6580 c3         1 0E7      -0.047100
     15 CG           2.2920     2.4310     1.6240 ca         1 0E7      -0.081300
     16 CD1          3.4740     3.0110     1.1740 ca         1 0E7      -0.118500
     17 CD2          2.1460     2.1820     2.9860 ca         1 0E7      -0.118500
     18 CE1          4.4910     3.3330     2.0640 ca         1 0E7      -0.125000
     19 CE2          3.1570     2.5070     3.8800 ca         1 0E7      -0.125000
     20 CZ1          4.3350     3.0820     3.4210 ca         1 0E7      -0.123000
     21 N1          -0.7410    -0.4880    -0.2040 ns         1 0E7      -0.545900
     22 CA2         -1.9620    -0.8000    -0.8940 c3         1 0E7      -0.012300
     23 CB2         -1.9120    -2.1850    -1.5880 c3         1 0E7       0.153100
     24 CG2         -1.7770    -3.3350    -0.6090 c3         1 0E7      -0.094100
     25 OG1         -0.8210    -2.2490    -2.4710 oh         1 0E7      -0.585800
     26 C2          -3.1200    -0.7280     0.0930 c          1 0E7       0.668100
     27 O2          -2.9500    -0.8150     1.2980 o          1 0E7      -0.599100
     28 N2          -4.3280    -0.5770    -0.4690 ns         1 0E7      -0.551900
     29 CA3         -5.5380    -0.5990     0.3040 c3         1 0E7       0.058700
     30 C3          -5.9000    -2.0290     0.6860 c          1 0E7       0.623100
     31 CB3         -6.6860     0.0620    -0.4740 c3         1 0E7      -0.037100
     32 CG1         -6.3570     1.4820    -0.8460 ca         1 0E7      -0.089300
     33 CD11        -5.9530     1.8120    -2.1360 ca         1 0E7      -0.123500
     34 CD21        -6.4260     2.4910     0.1120 ca         1 0E7      -0.123500
     35 CE11        -5.6220     3.1210    -2.4640 ca         1 0E7      -0.123000
     36 CE21        -6.0970     3.8000    -0.2110 ca         1 0E7      -0.123000
     37 CZ2         -5.6920     4.1180    -1.5010 ca         1 0E7      -0.122000
     38 O3          -5.4050    -3.0120     0.2020 o          1 0E7      -0.527000
     39 CM          -7.3210    -3.3180     2.0500 c3         1 0E7       0.127700
     40 OXT         -6.8440    -2.0440     1.6100 os         1 0E7      -0.417900
     41 HA1          4.7380    -0.7400    -1.7020 hc         1 0E7       0.060700
     42 HA2          5.1920     0.7810    -0.9800 hc         1 0E7       0.060700
     43 HB1          6.4040    -0.4100     0.8480 hc         1 0E7       0.059200
     44 HB2          5.8860    -1.9560     0.1960 hc         1 0E7       0.059200
     45 HD1          7.0860    -1.4360    -1.9490 h1         1 0E7       0.049200
     46 HD2          7.6310     0.0830    -1.2640 h1         1 0E7       0.049200
     47 HNE          8.2440    -2.4000     0.1750 hn         1 0E7       0.414800
     48 HH1         10.8910    -0.9810    -2.3050 hn         1 0E7       0.375400
     49 HH21        10.5020    -2.5180     0.6600 hn         1 0E7       0.396300
     50 HH22        11.5680    -2.2930    -0.6020 hn         1 0E7       0.396300
     51 H            2.7990     0.8360    -1.3400 hn         1 0E7       0.325500
     52 HA           1.3720    -0.0820     1.0740 h1         1 0E7       0.096700
     53 HB21         1.2270     2.6810    -0.2200 hc         1 0E7       0.060700
     54 HB3          0.2300     2.1350     1.1190 hc         1 0E7       0.060700
     55 HD11         3.6040     3.2180     0.1190 ha         1 0E7       0.127000
     56 HD21         1.2310     1.7320     3.3530 ha         1 0E7       0.127000
     57 HE1          5.4040     3.7830     1.6960 ha         1 0E7       0.130000
     58 HE2          3.0240     2.3120     4.9370 ha         1 0E7       0.130000
     59 HZ           5.1240     3.3370     4.1170 ha         1 0E7       0.130000
     60 H1          -0.6740    -0.7610     0.7650 hn         1 0E7       0.344500
     61 HA3         -2.1170    -0.0430    -1.6690 h1         1 0E7       0.080700
     62 HB          -2.8600    -2.2990    -2.1330 h1         1 0E7       0.029700
     63 HG21        -2.6510    -3.4070     0.0360 hc         1 0E7       0.053700
     64 HG22        -1.6950    -4.2770    -1.1510 hc         1 0E7       0.053700
     65 HG23        -0.8910    -3.2290     0.0190 hc         1 0E7       0.053700
     66 HG1         -0.8530    -1.4940    -3.0680 ho         1 0E7       0.415000
     67 HN2         -4.4030    -0.5570    -1.4740 hn         1 0E7       0.326500
     68 HA4         -5.3790    -0.0350     1.2270 h1         1 0E7       0.105700
     69 HBC1        -6.9080    -0.5220    -1.3710 hc         1 0E7       0.065700
     70 HBC2        -7.5820     0.0390     0.1480 hc         1 0E7       0.065700
     71 HD12        -5.9060     1.0430    -2.8990 ha         1 0E7       0.128500
     72 HD22        -6.7440     2.2520     1.1210 ha         1 0E7       0.128500
     73 HE11        -5.3110     3.3610    -3.4730 ha         1 0E7       0.134000
     74 HE21        -6.1600     4.5720     0.5440 ha         1 0E7       0.134000
     75 HZ1         -5.4360     5.1390    -1.7560 ha         1 0E7       0.134000
     76 HMC1        -7.7600    -3.8820     1.2280 h1         1 0E7       0.051367
     77 HMC2        -6.5210    -3.9040     2.5030 h1         1 0E7       0.051367
     78 HMC3        -8.0840    -3.1110     2.7940 h1         1 0E7       0.051367
@<TRIPOS>BOND
     1     1     2 2   
     2     1     3 1   
     3     1    10 1   
     4     3     4 1   
     5     3    41 1   
     6     3    42 1   
     7     4     5 1   
     8     4    43 1   
     9     4    44 1   
    10     5     6 1   
    11     5    45 1   
    12     5    46 1   
    13     6     7 1   
    14     6    47 1   
    15     7     8 2   
    16     7     9 1   
    17     8    48 1   
    18     9    49 1   
    19     9    50 1   
    20    10    11 1   
    21    10    51 1   
    22    11    12 1   
    23    11    14 1   
    24    11    52 1   
    25    12    13 2   
    26    12    21 1   
    27    14    15 1   
    28    14    53 1   
    29    14    54 1   
    30    15    16 ar  
    31    15    17 ar  
    32    16    18 ar  
    33    16    55 1   
    34    17    19 ar  
    35    17    56 1   
    36    18    20 ar  
    37    18    57 1   
    38    19    20 ar  
    39    19    58 1   
    40    20    59 1   
    41    21    22 1   
    42    21    60 1   
    43    22    23 1   
    44    22    26 1   
    45    22    61 1   
    46    23    24 1   
    47    23    25 1   
    48    23    62 1   
    49    24    63 1   
    50    24    64 1   
    51    24    65 1   
    52    25    66 1   
    53    26    27 2   
    54    26    28 1   
    55    28    29 1   
    56    28    67 1   
    57    29    30 1   
    58    29    31 1   
    59    29    68 1   
    60    30    38 2   
    61    30    40 1   
    62    31    32 1   
    63    31    69 1   
    64    31    70 1   
    65    32    33 ar  
    66    32    34 ar  
    67    33    35 ar  
    68    33    71 1   
    69    34    36 ar  
    70    34    72 1   
    71    35    37 ar  
    72    35    73 1   
    73    36    37 ar  
    74    36    74 1   
    75    37    75 1   
    76    39    40 1   
    77    39    76 1   
    78    39    77 1   
    79    39    78 1   
@<TRIPOS>SUBSTRUCTURE
     1 0E7         1 TEMP              0 ****  ****    0 ROOT
