@<TRIPOS>MOLECULE
0E8
   84    85     1     0     0
SMALL
No Charge or Current Charge


@<TRIPOS>ATOM
      1 O1           6.0530    -0.1870    -1.6420 o          1 0E8      -0.549000
      2 C            5.9810     0.6700    -0.7760 c          1 0E8       0.654600
      3 O2           6.8900     1.6560    -0.5080 os         1 0E8      -0.478100
      4 CT           8.1580     1.7490    -1.1970 c3         1 0E8       0.224000
      5 C1           7.9190     2.0040    -2.7080 c3         1 0E8      -0.108100
      6 C2           8.8500     2.9740    -0.5590 c3         1 0E8      -0.108100
      7 C3           8.9910     0.4690    -0.9200 c3         1 0E8      -0.108100
      8 C4           2.4840     0.6210     0.3720 c3         1 0E8       0.152800
      9 O            2.4830     1.4830     1.5350 oh         1 0E8      -0.648500
     10 CA           3.8360    -0.1500     0.2540 c3         1 0E8       0.098700
     11 N            4.9520     0.7940     0.1130 ns         1 0E8      -0.496900
     12 CB           4.1190    -1.1560     1.4080 c3         1 0E8      -0.055100
     13 CG           5.4630    -1.8650     1.2630 ca         1 0E8      -0.082800
     14 CD1          6.5860    -1.4230     1.9910 ca         1 0E8      -0.098250
     15 CD2          5.5960    -2.9570     0.3830 ca         1 0E8      -0.098250
     16 CE1          7.8280    -2.0630     1.8370 ca         1 0E8      -0.106750
     17 CE2          6.8380    -3.5970     0.2310 ca         1 0E8      -0.106750
     18 CZ           7.9550    -3.1500     0.9570 ca         1 0E8      -0.107000
     19 C31         -1.2660    -0.3050     0.5050 c3         1 0E8       0.128800
     20 C5          -2.5040     0.6020     0.2640 c3         1 0E8       0.152800
     21 O3          -2.2240     1.4100    -0.8890 oh         1 0E8      -0.648500
     22 CA1         -3.8610    -0.1570     0.1220 c3         1 0E8       0.098700
     23 N2          -4.9740     0.8000     0.0680 ns         1 0E8      -0.496900
     24 CB1         -3.9410    -1.1430    -1.0800 c3         1 0E8      -0.055100
     25 CG1         -5.3090    -1.8060    -1.2190 ca         1 0E8      -0.082800
     26 CD11        -6.2390    -1.3330    -2.1660 ca         1 0E8      -0.098250
     27 CD21        -5.6620    -2.8840    -0.3830 ca         1 0E8      -0.098250
     28 CE11        -7.5080    -1.9290    -2.2740 ca         1 0E8      -0.106750
     29 CE21        -6.9310    -3.4800    -0.4920 ca         1 0E8      -0.106750
     30 CZ1         -7.8550    -3.0020    -1.4360 ca         1 0E8      -0.107000
     31 O11         -6.3720    -0.1630     1.6070 o          1 0E8      -0.549000
     32 C6          -6.1430     0.6870     0.7630 c          1 0E8       0.654600
     33 O21         -6.9850     1.6760     0.3320 os         1 0E8      -0.478100
     34 CT1         -8.3560     1.7780     0.7830 c3         1 0E8       0.224000
     35 C11         -8.3880     2.0410     2.3110 c3         1 0E8      -0.108100
     36 C22         -8.9160     3.0020     0.0270 c3         1 0E8      -0.108100
     37 C32         -9.1310     0.5000     0.3680 c3         1 0E8      -0.108100
     38 H11          7.1820     2.8020    -2.8560 hc         1 0E8       0.048700
     39 H12          8.8520     2.3120    -3.1950 hc         1 0E8       0.048700
     40 H13          7.5670     1.1060    -3.2250 hc         1 0E8       0.048700
     41 H21          8.9850     2.8290     0.5190 hc         1 0E8       0.048700
     42 H22          9.8380     3.1410    -1.0050 hc         1 0E8       0.048700
     43 H23          8.2520     3.8810    -0.7100 hc         1 0E8       0.048700
     44 H31          8.5930    -0.4030    -1.4490 hc         1 0E8       0.048700
     45 H32         10.0260     0.6070    -1.2530 hc         1 0E8       0.048700
     46 H33          9.0090     0.2420     0.1530 hc         1 0E8       0.048700
     47 HC           2.4000     1.2380    -0.5330 h1         1 0E8       0.095200
     48 HO           2.4760     0.9030     2.3260 ho         1 0E8       0.437500
     49 HA           3.7780    -0.7370    -0.6730 h1         1 0E8       0.089700
     50 H            5.0200     1.5660     0.7620 hn         1 0E8       0.330000
     51 HB2          4.0820    -0.6280     2.3680 hc         1 0E8       0.048450
     52 HB3          3.3210    -1.9060     1.4420 hc         1 0E8       0.048450
     53 HD1          6.4990    -0.5760     2.6680 ha         1 0E8       0.108000
     54 HD2          4.7390    -3.3050    -0.1880 ha         1 0E8       0.108000
     55 HE1          8.6920    -1.7140     2.3990 ha         1 0E8       0.111500
     56 HE2          6.9360    -4.4380    -0.4530 ha         1 0E8       0.111500
     57 HZ           8.9160    -3.6440     0.8370 ha         1 0E8       0.111000
     58 HN1          0.0370     1.1760     1.1080 hn         1 0E8       0.424000
     59 H221         1.2790    -0.9850    -0.4750 h1         1 0E8       0.034450
     60 H231         1.2570    -0.9260     1.2960 h1         1 0E8       0.034450
     61 H321        -1.2700    -1.1270    -0.2220 h1         1 0E8       0.034450
     62 H331        -1.3270    -0.7490     1.5080 h1         1 0E8       0.034450
     63 HC1         -2.5910     1.2510     1.1470 h1         1 0E8       0.095200
     64 HO1         -1.2360     1.3830    -0.9260 ho         1 0E8       0.437500
     65 HA1         -3.9800    -0.7560     1.0360 h1         1 0E8       0.089700
     66 H1          -4.9240     1.5620    -0.5940 hn         1 0E8       0.330000
     67 HB21        -3.6920    -0.6080    -2.0040 hc         1 0E8       0.048450
     68 HB31        -3.1780    -1.9220    -0.9670 hc         1 0E8       0.048450
     69 HD11        -5.9830    -0.4970    -2.8130 ha         1 0E8       0.108000
     70 HD21        -4.9560    -3.2550     0.3560 ha         1 0E8       0.108000
     71 HE11        -8.2220    -1.5560    -3.0050 ha         1 0E8       0.111500
     72 HE21        -7.1990    -4.3090     0.1590 ha         1 0E8       0.111500
     73 HZ1         -8.8370    -3.4610    -1.5190 ha         1 0E8       0.111000
     74 H111        -7.6850     2.8360     2.5850 hc         1 0E8       0.048700
     75 H121        -9.3920     2.3550     2.6230 hc         1 0E8       0.048700
     76 H131        -8.1390     1.1440     2.8880 hc         1 0E8       0.048700
     77 H211        -8.8570     2.8510    -1.0580 hc         1 0E8       0.048700
     78 H222        -9.9670     3.1750     0.2890 hc         1 0E8       0.048700
     79 H232        -8.3500     3.9080     0.2770 hc         1 0E8       0.048700
     80 H311        -8.8380    -0.3710     0.9640 hc         1 0E8       0.048700
     81 H322       -10.2090     0.6440     0.5110 hc         1 0E8       0.048700
     82 H332        -8.9590     0.2670    -0.6890 hc         1 0E8       0.048700
     83 C21          1.2340    -0.3070     0.3880 c3         1 0E8       0.128800
     84 N1          -0.0160     0.4820     0.3480 n7         1 0E8      -0.852400
@<TRIPOS>BOND
     1     1     2 2   
     2     2     3 1   
     3     2    11 1   
     4     3     4 1   
     5     4     5 1   
     6     4     6 1   
     7     4     7 1   
     8     5    38 1   
     9     5    39 1   
    10     5    40 1   
    11     6    41 1   
    12     6    42 1   
    13     6    43 1   
    14     7    44 1   
    15     7    45 1   
    16     7    46 1   
    17     8     9 1   
    18     8    10 1   
    19     8    47 1   
    20     8    83 1   
    21     9    48 1   
    22    10    11 1   
    23    10    12 1   
    24    10    49 1   
    25    11    50 1   
    26    12    13 1   
    27    12    51 1   
    28    12    52 1   
    29    13    14 ar  
    30    13    15 ar  
    31    14    16 ar  
    32    14    53 1   
    33    15    17 ar  
    34    15    54 1   
    35    16    18 ar  
    36    16    55 1   
    37    17    18 ar  
    38    17    56 1   
    39    18    57 1   
    40    19    20 1   
    41    19    61 1   
    42    19    62 1   
    43    19    84 1   
    44    20    21 1   
    45    20    22 1   
    46    20    63 1   
    47    21    64 1   
    48    22    23 1   
    49    22    24 1   
    50    22    65 1   
    51    23    32 1   
    52    23    66 1   
    53    24    25 1   
    54    24    67 1   
    55    24    68 1   
    56    25    26 ar  
    57    25    27 ar  
    58    26    28 ar  
    59    26    69 1   
    60    27    29 ar  
    61    27    70 1   
    62    28    30 ar  
    63    28    71 1   
    64    29    30 ar  
    65    29    72 1   
    66    30    73 1   
    67    31    32 2   
    68    32    33 1   
    69    33    34 1   
    70    34    35 1   
    71    34    36 1   
    72    34    37 1   
    73    35    74 1   
    74    35    75 1   
    75    35    76 1   
    76    36    77 1   
    77    36    78 1   
    78    36    79 1   
    79    37    80 1   
    80    37    81 1   
    81    37    82 1   
    82    58    84 1   
    83    59    83 1   
    84    60    83 1   
    85    83    84 1   
@<TRIPOS>SUBSTRUCTURE
     1 0E8         1 TEMP              0 ****  ****    0 ROOT
