@<TRIPOS>MOLECULE
0E8
   84    85     1     0     0
SMALL
bcc


@<TRIPOS>ATOM
      1 O1           5.9410     0.0960    -1.5310 o          1 0E8      -0.598000
      2 C            5.8780     0.7710    -0.5240 c          1 0E8       0.770600
      3 O2           6.8120     1.6260    -0.1040 os         1 0E8      -0.454900
      4 CT           8.0540     1.8360    -0.8210 c3         1 0E8       0.200800
      5 C1           7.8000     2.3750    -2.2250 c3         1 0E8      -0.108100
      6 C2           8.7600     2.8990     0.0140 c3         1 0E8      -0.108100
      7 C3           8.8910     0.5630    -0.8430 c3         1 0E8      -0.108100
      8 C4           2.4090     0.6110     0.3710 c3         1 0E8       0.129600
      9 O            2.3340     1.3550     1.5730 oh         1 0E8      -0.586300
     10 CA           3.7340    -0.1510     0.2500 c3         1 0E8       0.098700
     11 N            4.8270     0.7890     0.3230 ns         1 0E8      -0.563900
     12 CB           3.9040    -1.2720     1.2920 c3         1 0E8      -0.055100
     13 CG           5.2210    -1.9760     1.1360 ca         1 0E8      -0.082800
     14 CD1          6.3440    -1.5550     1.8440 ca         1 0E8      -0.116250
     15 CD2          5.3600    -3.0300     0.2360 ca         1 0E8      -0.116250
     16 CE1          7.5770    -2.1660     1.6540 ca         1 0E8      -0.124750
     17 CE2          6.5880    -3.6460     0.0450 ca         1 0E8      -0.124750
     18 CZ           7.7030    -3.2130     0.7520 ca         1 0E8      -0.125000
     19 C31         -1.2090    -0.2590    -0.1220 c3         1 0E8       0.128800
     20 C5          -2.4150     0.6400    -0.3590 c3         1 0E8       0.129600
     21 O3          -2.3340     1.3510    -1.5750 oh         1 0E8      -0.586300
     22 CA1         -3.7420    -0.1200    -0.2300 c3         1 0E8       0.098700
     23 N2          -4.8350     0.8170    -0.3290 ns         1 0E8      -0.563900
     24 CB1         -3.8980    -1.2540    -1.2600 c3         1 0E8      -0.055100
     25 CG1         -5.2120    -1.9640    -1.1070 ca         1 0E8      -0.082800
     26 CD11        -6.3330    -1.5540    -1.8250 ca         1 0E8      -0.116250
     27 CD21        -5.3510    -3.0120    -0.2020 ca         1 0E8      -0.116250
     28 CE11        -7.5630    -2.1690    -1.6380 ca         1 0E8      -0.124750
     29 CE21        -6.5770    -3.6340    -0.0140 ca         1 0E8      -0.124750
     30 CZ1         -7.6900    -3.2110    -0.7300 ca         1 0E8      -0.125000
     31 O11         -5.9710     0.1480     1.5210 o          1 0E8      -0.598000
     32 C6          -5.8970     0.8080     0.5050 c          1 0E8       0.770600
     33 O21         -6.8270     1.6550     0.0600 os         1 0E8      -0.454900
     34 CT1         -8.0800     1.8730     0.7570 c3         1 0E8       0.200800
     35 C11         -7.8450     2.4340     2.1560 c3         1 0E8      -0.108100
     36 C22         -8.7780     2.9200    -0.1040 c3         1 0E8      -0.108100
     37 C32         -8.9130     0.5970     0.7880 c3         1 0E8      -0.108100
     38 H11          7.1280     3.2350    -2.1960 hc         1 0E8       0.048700
     39 H12          8.7440     2.7120    -2.6550 hc         1 0E8       0.048700
     40 H13          7.3790     1.6250    -2.8900 hc         1 0E8       0.048700
     41 H21          8.9500     2.5440     1.0280 hc         1 0E8       0.048700
     42 H22          9.7200     3.1450    -0.4390 hc         1 0E8       0.048700
     43 H23          8.1730     3.8160     0.0730 hc         1 0E8       0.048700
     44 H31          8.4260    -0.2300    -1.4240 hc         1 0E8       0.048700
     45 H32          9.8640     0.7810    -1.2860 hc         1 0E8       0.048700
     46 H33          9.0620     0.1910     0.1680 hc         1 0E8       0.048700
     47 HC           2.4010     1.3560    -0.4300 h1         1 0E8       0.095200
     48 HO           2.1900     0.7480     2.3080 ho         1 0E8       0.398500
     49 HA           3.7560    -0.6020    -0.7450 h1         1 0E8       0.089700
     50 H            4.8910     1.3590     1.1530 hn         1 0E8       0.330000
     51 HB2          3.8300    -0.8560     2.3020 hc         1 0E8       0.048450
     52 HB3          3.0850    -1.9860     1.1850 hc         1 0E8       0.048450
     53 HD1          6.2540    -0.7400     2.5510 ha         1 0E8       0.126000
     54 HD2          4.4970    -3.3720    -0.3230 ha         1 0E8       0.126000
     55 HE1          8.4380    -1.8220     2.2130 ha         1 0E8       0.129500
     56 HE2          6.6750    -4.4670    -0.6560 ha         1 0E8       0.129500
     57 HZ           8.6630    -3.6920     0.6040 ha         1 0E8       0.129000
     58 HN1         -0.0990     1.1450     0.8070 hn         1 0E8       0.368800
     59 H221         1.3320    -0.8880    -0.7170 h1         1 0E8       0.034450
     60 H231         1.1000    -0.9890     1.0210 h1         1 0E8       0.034450
     61 H321        -1.0810    -0.9480    -0.9650 h1         1 0E8       0.034450
     62 H331        -1.4050    -0.8940     0.7570 h1         1 0E8       0.034450
     63 HC1         -2.4250     1.4050     0.4260 h1         1 0E8       0.095200
     64 HO1         -2.0950     0.7380    -2.2790 ho         1 0E8       0.398500
     65 HA1         -3.7730    -0.5540     0.7700 h1         1 0E8       0.089700
     66 H1          -4.8930     1.3720    -1.1700 hn         1 0E8       0.330000
     67 HB21        -3.8170    -0.8460    -2.2720 hc         1 0E8       0.048450
     68 HB31        -3.0760    -1.9630    -1.1380 hc         1 0E8       0.048450
     69 HD11        -6.2420    -0.7430    -2.5380 ha         1 0E8       0.126000
     70 HD21        -4.4900    -3.3470     0.3660 ha         1 0E8       0.126000
     71 HE11        -8.4230    -1.8350    -2.2050 ha         1 0E8       0.129500
     72 HE21        -6.6640    -4.4500     0.6920 ha         1 0E8       0.129500
     73 HZ1         -8.6480    -3.6950    -0.5850 ha         1 0E8       0.129000
     74 H111        -7.1770     3.2970     2.1220 hc         1 0E8       0.048700
     75 H121        -8.7960     2.7720     2.5700 hc         1 0E8       0.048700
     76 H131        -7.4270     1.6970     2.8360 hc         1 0E8       0.048700
     77 H211        -8.9540     2.5490    -1.1150 hc         1 0E8       0.048700
     78 H222        -9.7440     3.1700     0.3340 hc         1 0E8       0.048700
     79 H232        -8.1920     3.8380    -0.1690 hc         1 0E8       0.048700
     80 H311        -8.4530    -0.1850     1.3870 hc         1 0E8       0.048700
     81 H322        -9.8930     0.8190     1.2140 hc         1 0E8       0.048700
     82 H332        -9.0680     0.2100    -0.2200 hc         1 0E8       0.048700
     83 C21          1.1890    -0.2790     0.1810 c3         1 0E8       0.128800
     84 N1          -0.0010     0.5280     0.0080 n7         1 0E8      -0.797200
@<TRIPOS>BOND
     1     1     2 2   
     2     2     3 1   
     3     2    11 1   
     4     3     4 1   
     5     4     5 1   
     6     4     6 1   
     7     4     7 1   
     8     5    38 1   
     9     5    39 1   
    10     5    40 1   
    11     6    41 1   
    12     6    42 1   
    13     6    43 1   
    14     7    44 1   
    15     7    45 1   
    16     7    46 1   
    17     8     9 1   
    18     8    10 1   
    19     8    47 1   
    20     8    83 1   
    21     9    48 1   
    22    10    11 1   
    23    10    12 1   
    24    10    49 1   
    25    11    50 1   
    26    12    13 1   
    27    12    51 1   
    28    12    52 1   
    29    13    14 ar  
    30    13    15 ar  
    31    14    16 ar  
    32    14    53 1   
    33    15    17 ar  
    34    15    54 1   
    35    16    18 ar  
    36    16    55 1   
    37    17    18 ar  
    38    17    56 1   
    39    18    57 1   
    40    19    20 1   
    41    19    61 1   
    42    19    62 1   
    43    19    84 1   
    44    20    21 1   
    45    20    22 1   
    46    20    63 1   
    47    21    64 1   
    48    22    23 1   
    49    22    24 1   
    50    22    65 1   
    51    23    32 1   
    52    23    66 1   
    53    24    25 1   
    54    24    67 1   
    55    24    68 1   
    56    25    26 ar  
    57    25    27 ar  
    58    26    28 ar  
    59    26    69 1   
    60    27    29 ar  
    61    27    70 1   
    62    28    30 ar  
    63    28    71 1   
    64    29    30 ar  
    65    29    72 1   
    66    30    73 1   
    67    31    32 2   
    68    32    33 1   
    69    33    34 1   
    70    34    35 1   
    71    34    36 1   
    72    34    37 1   
    73    35    74 1   
    74    35    75 1   
    75    35    76 1   
    76    36    77 1   
    77    36    78 1   
    78    36    79 1   
    79    37    80 1   
    80    37    81 1   
    81    37    82 1   
    82    58    84 1   
    83    59    83 1   
    84    60    83 1   
    85    83    84 1   
@<TRIPOS>SUBSTRUCTURE
     1 0E8         1 TEMP              0 ****  ****    0 ROOT
