@<TRIPOS>MOLECULE
0E9
  106   109     1     0     0
SMALL
No Charge or Current Charge


@<TRIPOS>ATOM
      1 C1          -7.1530    -0.4570     0.4880 c          1 0E9       0.643100
      2 O1          -7.6370     0.2960     1.3180 o          1 0E9      -0.554000
      3 O2          -7.7820    -0.9400    -0.6150 os         1 0E9      -0.454100
      4 C2          -9.1470    -0.5430    -0.8260 c3         1 0E9       0.231400
      5 C3          -9.6450    -1.1990    -2.1060 ca         1 0E9      -0.101800
      6 C4         -10.2480    -2.4720    -2.0650 ca         1 0E9      -0.084750
      7 C5         -10.7090    -3.0770    -3.2470 ca         1 0E9      -0.115250
      8 C6         -10.5690    -2.4140    -4.4780 ca         1 0E9      -0.097500
      9 C7          -9.9670    -1.1460    -4.5260 ca         1 0E9      -0.115250
     10 C8          -9.5050    -0.5400    -3.3440 ca         1 0E9      -0.084750
     11 N           -5.8750    -0.9370     0.5110 ns         1 0E9      -0.488900
     12 CA          -4.8620    -0.6280     1.5450 c3         1 0E9       0.051200
     13 C           -3.4980    -0.3750     0.8410 c          1 0E9       0.587600
     14 O           -3.1640    -0.9330    -0.1980 o          1 0E9      -0.611100
     15 CB          -4.7840    -1.7690     2.6140 c3         1 0E9      -0.066200
     16 CG1         -3.6980    -1.5170     3.6900 c3         1 0E9      -0.090850
     17 CG2         -6.1490    -2.0450     3.2960 c3         1 0E9      -0.090850
     18 C11         -1.0680     2.4060     1.5440 c3         1 0E9      -0.047100
     19 C21         -1.3820     1.0200     0.9200 c3         1 0E9       0.078700
     20 N2          -2.6660     0.5350     1.4560 ns         1 0E9      -0.488400
     21 C31         -0.2280    -0.0230     1.1100 c3         1 0E9       0.145300
     22 O3          -0.5780    -1.2740     0.4860 oh         1 0E9      -0.659000
     23 C41          1.1730     0.4360     0.5920 c3         1 0E9       0.078700
     24 N4           2.1770    -0.6050     0.8560 ns         1 0E9      -0.488400
     25 C51          1.2060     0.8320    -0.9130 c3         1 0E9      -0.047100
     26 C1A         -2.2540     3.3660     1.4870 ca         1 0E9      -0.087300
     27 C2A         -2.9010     3.7740     2.6700 ca         1 0E9      -0.100250
     28 C3A         -4.0030     4.6450     2.6110 ca         1 0E9      -0.106500
     29 C4A         -4.4640     5.1140     1.3700 ca         1 0E9      -0.107500
     30 C5A         -3.8210     4.7140     0.1870 ca         1 0E9      -0.106500
     31 C6A         -2.7190     3.8430     0.2450 ca         1 0E9      -0.100250
     32 C1B          2.6150     1.1340    -1.4190 ca         1 0E9      -0.087300
     33 C2B          3.3550     0.1470    -2.1020 ca         1 0E9      -0.100250
     34 C3B          4.6700     0.4100    -2.5250 ca         1 0E9      -0.106500
     35 C4B          5.2520     1.6630    -2.2710 ca         1 0E9      -0.107500
     36 C5B          4.5180     2.6540    -1.5980 ca         1 0E9      -0.106500
     37 C6B          3.2040     2.3900    -1.1720 ca         1 0E9      -0.100250
     38 N1           5.7470    -1.0800     0.8130 ns         1 0E9      -0.488900
     39 CA1          4.4210    -1.5850     1.2280 c3         1 0E9       0.051200
     40 C9           3.4530    -0.3730     1.3270 c          1 0E9       0.587600
     41 O4           3.7990     0.7200     1.7620 o          1 0E9      -0.611100
     42 CB1          4.5070    -2.4000     2.5570 c3         1 0E9      -0.066200
     43 CG11         3.1210    -2.8990     3.0370 c3         1 0E9      -0.090850
     44 CG21         5.4990    -3.5860     2.4630 c3         1 0E9      -0.090850
     45 O11          6.2460    -2.6210    -0.8160 o          1 0E9      -0.554000
     46 O21          7.5980    -0.8160    -0.3700 os         1 0E9      -0.454100
     47 C22          8.5110    -1.1790    -1.4170 c3         1 0E9       0.231400
     48 C32          9.6050    -0.1230    -1.4870 ca         1 0E9      -0.101800
     49 C42         10.6950    -0.1690    -0.5940 ca         1 0E9      -0.084750
     50 C52         11.7050     0.8060    -0.6570 ca         1 0E9      -0.115250
     51 C61         11.6320     1.8350    -1.6120 ca         1 0E9      -0.097500
     52 C71         10.5470     1.8880    -2.5030 ca         1 0E9      -0.115250
     53 C81          9.5370     0.9120    -2.4410 ca         1 0E9      -0.084750
     54 H21         -9.7780    -0.8560     0.0170 h1         1 0E9       0.054950
     55 H22         -9.2250     0.5490    -0.9180 h1         1 0E9       0.054950
     56 H41        -10.3580    -2.9930    -1.1160 ha         1 0E9       0.114500
     57 H51        -11.1740    -4.0600    -3.2090 ha         1 0E9       0.115000
     58 H61        -10.9260    -2.8830    -5.3930 ha         1 0E9       0.114000
     59 H71         -9.8560    -0.6320    -5.4790 ha         1 0E9       0.115000
     60 H81         -9.0380     0.4420    -3.3900 ha         1 0E9       0.114500
     61 H           -5.6100    -1.5230    -0.2720 hn         1 0E9       0.343000
     62 HA          -5.1450     0.3080     2.0440 h1         1 0E9       0.085700
     63 HB          -4.5000    -2.6900     2.0880 hc         1 0E9       0.065700
     64 HG11        -3.8640    -0.5600     4.1990 hc         1 0E9       0.039617
     65 HG12        -3.7110    -2.3110     4.4480 hc         1 0E9       0.039617
     66 HG13        -2.6930    -1.5100     3.2510 hc         1 0E9       0.039617
     67 HG21        -6.8960    -2.3850     2.5690 hc         1 0E9       0.039617
     68 HG22        -6.0530    -2.8310     4.0550 hc         1 0E9       0.039617
     69 HG23        -6.5300    -1.1410     3.7870 hc         1 0E9       0.039617
     70 H11         -0.7460     2.2640     2.5830 hc         1 0E9       0.055200
     71 H12         -0.2190     2.8620     1.0220 hc         1 0E9       0.055200
     72 H2          -1.5210     1.1750    -0.1590 h1         1 0E9       0.088200
     73 HN22        -3.0180     0.9690     2.3020 hn         1 0E9       0.323000
     74 H3          -0.1260    -0.1840     2.1930 h1         1 0E9       0.078700
     75 HO3         -1.5190    -1.1830     0.1820 ho         1 0E9       0.456000
     76 H4           1.4600     1.3240     1.1700 h1         1 0E9       0.088200
     77 HN42         1.9580    -1.5460     0.5500 hn         1 0E9       0.323000
     78 H511         0.7670     0.0230    -1.5090 hc         1 0E9       0.055200
     79 H52          0.5660     1.7070    -1.0760 hc         1 0E9       0.055200
     80 H2A         -2.5540     3.4170     3.6370 ha         1 0E9       0.110750
     81 H3A         -4.4990     4.9560     3.5280 ha         1 0E9       0.114000
     82 H4A         -5.3170     5.7880     1.3250 ha         1 0E9       0.112000
     83 H5A         -4.1760     5.0770    -0.7750 ha         1 0E9       0.114000
     84 H6A         -2.2290     3.5370    -0.6770 ha         1 0E9       0.110750
     85 H2B          2.9170    -0.8300    -2.2930 ha         1 0E9       0.110750
     86 H3B          5.2380    -0.3590    -3.0430 ha         1 0E9       0.114000
     87 H4B          6.2700     1.8660    -2.5940 ha         1 0E9       0.112000
     88 H5B          4.9680     3.6230    -1.3990 ha         1 0E9       0.114000
     89 H6B          2.6470     3.1580    -0.6390 ha         1 0E9       0.110750
     90 H1           6.0830    -0.2110     1.2100 hn         1 0E9       0.343000
     91 HA1          4.0340    -2.2420     0.4370 h1         1 0E9       0.085700
     92 HB1          4.8880    -1.7230     3.3320 hc         1 0E9       0.065700
     93 HG14         2.6480    -3.5330     2.2760 hc         1 0E9       0.039617
     94 HG15         3.2190    -3.4880     3.9570 hc         1 0E9       0.039617
     95 HG16         2.4490    -2.0610     3.2570 hc         1 0E9       0.039617
     96 HG24         6.5190    -3.2370     2.2630 hc         1 0E9       0.039617
     97 HG25         5.5240    -4.1480     3.4040 hc         1 0E9       0.039617
     98 HG26         5.2070    -4.2760     1.6610 hc         1 0E9       0.039617
     99 H211         8.9610    -2.1610    -1.2190 h1         1 0E9       0.054950
    100 H221         7.9920    -1.2350    -2.3840 h1         1 0E9       0.054950
    101 H411        10.7560    -0.9610     0.1500 ha         1 0E9       0.114500
    102 H512        12.5440     0.7650     0.0350 ha         1 0E9       0.115000
    103 H611        12.4140     2.5900    -1.6600 ha         1 0E9       0.114000
    104 H711        10.4890     2.6840    -3.2420 ha         1 0E9       0.115000
    105 H811         8.7000     0.9620    -3.1350 ha         1 0E9       0.114500
    106 C12          6.5180    -1.6170    -0.1760 c          1 0E9       0.643100
@<TRIPOS>BOND
     1     1     2 2   
     2     1     3 1   
     3     1    11 1   
     4     3     4 1   
     5     4     5 1   
     6     4    54 1   
     7     4    55 1   
     8     5     6 ar  
     9     5    10 ar  
    10     6     7 ar  
    11     6    56 1   
    12     7     8 ar  
    13     7    57 1   
    14     8     9 ar  
    15     8    58 1   
    16     9    10 ar  
    17     9    59 1   
    18    10    60 1   
    19    11    12 1   
    20    11    61 1   
    21    12    13 1   
    22    12    15 1   
    23    12    62 1   
    24    13    14 2   
    25    13    20 1   
    26    15    16 1   
    27    15    17 1   
    28    15    63 1   
    29    16    64 1   
    30    16    65 1   
    31    16    66 1   
    32    17    67 1   
    33    17    68 1   
    34    17    69 1   
    35    18    19 1   
    36    18    26 1   
    37    18    70 1   
    38    18    71 1   
    39    19    20 1   
    40    19    21 1   
    41    19    72 1   
    42    20    73 1   
    43    21    22 1   
    44    21    23 1   
    45    21    74 1   
    46    22    75 1   
    47    23    24 1   
    48    23    25 1   
    49    23    76 1   
    50    24    40 1   
    51    24    77 1   
    52    25    32 1   
    53    25    78 1   
    54    25    79 1   
    55    26    27 ar  
    56    26    31 ar  
    57    27    28 ar  
    58    27    80 1   
    59    28    29 ar  
    60    28    81 1   
    61    29    30 ar  
    62    29    82 1   
    63    30    31 ar  
    64    30    83 1   
    65    31    84 1   
    66    32    33 ar  
    67    32    37 ar  
    68    33    34 ar  
    69    33    85 1   
    70    34    35 ar  
    71    34    86 1   
    72    35    36 ar  
    73    35    87 1   
    74    36    37 ar  
    75    36    88 1   
    76    37    89 1   
    77    38    39 1   
    78    38    90 1   
    79    38   106 1   
    80    39    40 1   
    81    39    42 1   
    82    39    91 1   
    83    40    41 2   
    84    42    43 1   
    85    42    44 1   
    86    42    92 1   
    87    43    93 1   
    88    43    94 1   
    89    43    95 1   
    90    44    96 1   
    91    44    97 1   
    92    44    98 1   
    93    45   106 2   
    94    46    47 1   
    95    46   106 1   
    96    47    48 1   
    97    47    99 1   
    98    47   100 1   
    99    48    49 ar  
   100    48    53 ar  
   101    49    50 ar  
   102    49   101 1   
   103    50    51 ar  
   104    50   102 1   
   105    51    52 ar  
   106    51   103 1   
   107    52    53 ar  
   108    52   104 1   
   109    53   105 1   
@<TRIPOS>SUBSTRUCTURE
     1 0E9         1 TEMP              0 ****  ****    0 ROOT
