@<TRIPOS>MOLECULE
0E9
  106   109     1     0     0
SMALL
bcc


@<TRIPOS>ATOM
      1 C1          -6.5270    -0.2560     1.0710 c          1 0E9       0.759100
      2 O1          -6.4390     0.4840     2.0280 o          1 0E9      -0.603000
      3 O2          -7.4360    -0.1160     0.1000 os         1 0E9      -0.430900
      4 C2          -8.3410     0.9880     0.2130 c3         1 0E9       0.208200
      5 C3          -9.1810     0.9890    -1.0280 ca         1 0E9      -0.101800
      6 C4         -10.3700     0.2680    -1.0800 ca         1 0E9      -0.102750
      7 C5         -11.1330     0.2480    -2.2400 ca         1 0E9      -0.133250
      8 C6         -10.7100     0.9490    -3.3620 ca         1 0E9      -0.115500
      9 C7          -9.5250     1.6730    -3.3180 ca         1 0E9      -0.133250
     10 C8          -8.7660     1.6890    -2.1560 ca         1 0E9      -0.102750
     11 N           -5.7530    -1.3350     0.8380 ns         1 0E9      -0.555900
     12 CA          -4.5790    -1.6380     1.6220 c3         1 0E9       0.051200
     13 C           -3.3570    -1.3510     0.7520 c          1 0E9       0.654600
     14 O           -3.2110    -1.9150    -0.3240 o          1 0E9      -0.611100
     15 CB          -4.5670    -3.0870     2.1280 c3         1 0E9      -0.066200
     16 CG1         -3.3010    -3.3470     2.9410 c3         1 0E9      -0.090850
     17 CG2         -5.8090    -3.3710     2.9630 c3         1 0E9      -0.090850
     18 C11         -1.3480     1.5910     0.6010 c3         1 0E9      -0.047100
     19 C21         -1.3440     0.0570     0.5520 c3         1 0E9       0.078700
     20 N2          -2.5100    -0.4390     1.2440 ns         1 0E9      -0.555400
     21 C31         -0.0780    -0.5760     1.1460 c3         1 0E9       0.122100
     22 O3          -0.1350    -1.9820     1.0800 oh         1 0E9      -0.596800
     23 C41          1.2230    -0.0410     0.5280 c3         1 0E9       0.078700
     24 N4           2.3460    -0.7050     1.1470 ns         1 0E9      -0.555400
     25 C51          1.2940    -0.1960    -1.0000 c3         1 0E9      -0.047100
     26 C1A         -2.5770     2.1550    -0.0550 ca         1 0E9      -0.087300
     27 C2A         -3.7060     2.4920     0.6850 ca         1 0E9      -0.118250
     28 C3A         -4.8500     2.9690     0.0580 ca         1 0E9      -0.124500
     29 C4A         -4.8800     3.1130    -1.3220 ca         1 0E9      -0.125500
     30 C5A         -3.7610     2.7750    -2.0720 ca         1 0E9      -0.124500
     31 C6A         -2.6200     2.3010    -1.4400 ca         1 0E9      -0.118250
     32 C1B          2.6070     0.2980    -1.5370 ca         1 0E9      -0.087300
     33 C2B          3.6540    -0.5850    -1.7860 ca         1 0E9      -0.118250
     34 C3B          4.8880    -0.1200    -2.2210 ca         1 0E9      -0.124500
     35 C4B          5.0940     1.2380    -2.4110 ca         1 0E9      -0.125500
     36 C5B          4.0550     2.1280    -2.1720 ca         1 0E9      -0.124500
     37 C6B          2.8230     1.6590    -1.7380 ca         1 0E9      -0.118250
     38 N1           5.7440    -0.4890     1.5360 ns         1 0E9      -0.555900
     39 CA1          4.5330    -0.9640     2.1640 c3         1 0E9       0.051200
     40 C9           3.3920    -0.0660     1.6900 c          1 0E9       0.654600
     41 O4           3.4640     1.1470     1.8210 o          1 0E9      -0.611100
     42 CB1          4.6350    -0.9540     3.6970 c3         1 0E9      -0.066200
     43 CG11         3.3240    -1.4160     4.3280 c3         1 0E9      -0.090850
     44 CG21         5.7930    -1.8280     4.1630 c3         1 0E9      -0.090850
     45 O11          6.2540    -2.3820     0.3760 o          1 0E9      -0.603000
     46 O21          7.4350    -0.4800     0.1220 os         1 0E9      -0.430900
     47 C22          8.3170    -1.1300    -0.7990 c3         1 0E9       0.208200
     48 C32          9.1150    -0.0560    -1.4730 ca         1 0E9      -0.101800
     49 C42         10.1490     0.5870    -0.7940 ca         1 0E9      -0.102750
     50 C52         10.8720     1.5990    -1.4080 ca         1 0E9      -0.133250
     51 C61         10.5700     1.9790    -2.7110 ca         1 0E9      -0.115500
     52 C71          9.5440     1.3410    -3.3950 ca         1 0E9      -0.133250
     53 C81          8.8210     0.3300    -2.7760 ca         1 0E9      -0.102750
     54 H21         -8.9610     0.8780     1.1050 h1         1 0E9       0.054950
     55 H22         -7.7840     1.9230     0.3010 h1         1 0E9       0.054950
     56 H41        -10.7070    -0.2790    -0.2060 ha         1 0E9       0.132500
     57 H51        -12.0570    -0.3140    -2.2680 ha         1 0E9       0.133000
     58 H61        -11.3050     0.9350    -4.2660 ha         1 0E9       0.132000
     59 H71         -9.1940     2.2270    -4.1870 ha         1 0E9       0.133000
     60 H81         -7.8450     2.2600    -2.1250 ha         1 0E9       0.132500
     61 H           -5.8780    -1.8400    -0.0260 hn         1 0E9       0.343000
     62 HA          -4.5900    -0.9760     2.4900 h1         1 0E9       0.085700
     63 HB          -4.5660    -3.7520     1.2580 hc         1 0E9       0.065700
     64 HG11        -3.2400    -2.6640     3.7920 hc         1 0E9       0.039617
     65 HG12        -3.3030    -4.3640     3.3330 hc         1 0E9       0.039617
     66 HG13        -2.3890    -3.2270     2.3540 hc         1 0E9       0.039617
     67 HG21        -6.7260    -3.2590     2.3860 hc         1 0E9       0.039617
     68 HG22        -5.7850    -4.3920     3.3470 hc         1 0E9       0.039617
     69 HG23        -5.8660    -2.6960     3.8210 hc         1 0E9       0.039617
     70 H11         -1.2760     1.9220     1.6410 hc         1 0E9       0.055200
     71 H12         -0.4600     1.9740     0.0950 hc         1 0E9       0.055200
     72 H2          -1.4450    -0.2520    -0.4930 h1         1 0E9       0.088200
     73 HN22        -2.7090    -0.0450     2.1500 hn         1 0E9       0.323000
     74 H3          -0.0420    -0.3310     2.2140 h1         1 0E9       0.078700
     75 HO3         -0.4260    -2.2540     0.2030 ho         1 0E9       0.417000
     76 H4           1.3120     1.0170     0.7780 h1         1 0E9       0.088200
     77 HN42         2.3850    -1.7090     1.0650 hn         1 0E9       0.323000
     78 H511         1.1520    -1.2440    -1.2790 hc         1 0E9       0.055200
     79 H52          0.4730     0.3630    -1.4570 hc         1 0E9       0.055200
     80 H2A         -3.6940     2.3890     1.7640 ha         1 0E9       0.128750
     81 H3A         -5.7170     3.2300     0.6510 ha         1 0E9       0.132000
     82 H4A         -5.7690     3.4930    -1.8100 ha         1 0E9       0.130000
     83 H5A         -3.7740     2.8850    -3.1490 ha         1 0E9       0.132000
     84 H6A         -1.7500     2.0400    -2.0330 ha         1 0E9       0.128750
     85 H2B          3.5040    -1.6480    -1.6390 ha         1 0E9       0.128750
     86 H3B          5.6850    -0.8260    -2.4170 ha         1 0E9       0.132000
     87 H4B          6.0570     1.6030    -2.7470 ha         1 0E9       0.130000
     88 H5B          4.2040     3.1900    -2.3240 ha         1 0E9       0.132000
     89 H6B          2.0190     2.3630    -1.5550 ha         1 0E9       0.128750
     90 H1           5.9700     0.4870     1.6480 hn         1 0E9       0.343000
     91 HA1          4.3730    -1.9920     1.8330 h1         1 0E9       0.085700
     92 HB1          4.8280     0.0770     4.0130 hc         1 0E9       0.065700
     93 HG14         3.0640    -2.4240     3.9960 hc         1 0E9       0.039617
     94 HG15         3.4150    -1.4400     5.4140 hc         1 0E9       0.039617
     95 HG16         2.4880    -0.7580     4.0880 hc         1 0E9       0.039617
     96 HG24         6.7470    -1.4930     3.7590 hc         1 0E9       0.039617
     97 HG25         5.8700    -1.8060     5.2510 hc         1 0E9       0.039617
     98 HG26         5.6470    -2.8690     3.8630 hc         1 0E9       0.039617
     99 H211         8.9670    -1.8220    -0.2580 h1         1 0E9       0.054950
    100 H221         7.7520    -1.7040    -1.5350 h1         1 0E9       0.054950
    101 H411        10.3920     0.2900     0.2190 ha         1 0E9       0.132500
    102 H512        11.6730     2.0890    -0.8720 ha         1 0E9       0.133000
    103 H611        11.1360     2.7660    -3.1920 ha         1 0E9       0.132000
    104 H711         9.3070     1.6290    -4.4110 ha         1 0E9       0.133000
    105 H811         8.0250    -0.1680    -3.3180 ha         1 0E9       0.132500
    106 C12          6.4520    -1.2170     0.6530 c          1 0E9       0.759100
@<TRIPOS>BOND
     1     1     2 2   
     2     1     3 1   
     3     1    11 1   
     4     3     4 1   
     5     4     5 1   
     6     4    54 1   
     7     4    55 1   
     8     5     6 ar  
     9     5    10 ar  
    10     6     7 ar  
    11     6    56 1   
    12     7     8 ar  
    13     7    57 1   
    14     8     9 ar  
    15     8    58 1   
    16     9    10 ar  
    17     9    59 1   
    18    10    60 1   
    19    11    12 1   
    20    11    61 1   
    21    12    13 1   
    22    12    15 1   
    23    12    62 1   
    24    13    14 2   
    25    13    20 1   
    26    15    16 1   
    27    15    17 1   
    28    15    63 1   
    29    16    64 1   
    30    16    65 1   
    31    16    66 1   
    32    17    67 1   
    33    17    68 1   
    34    17    69 1   
    35    18    19 1   
    36    18    26 1   
    37    18    70 1   
    38    18    71 1   
    39    19    20 1   
    40    19    21 1   
    41    19    72 1   
    42    20    73 1   
    43    21    22 1   
    44    21    23 1   
    45    21    74 1   
    46    22    75 1   
    47    23    24 1   
    48    23    25 1   
    49    23    76 1   
    50    24    40 1   
    51    24    77 1   
    52    25    32 1   
    53    25    78 1   
    54    25    79 1   
    55    26    27 ar  
    56    26    31 ar  
    57    27    28 ar  
    58    27    80 1   
    59    28    29 ar  
    60    28    81 1   
    61    29    30 ar  
    62    29    82 1   
    63    30    31 ar  
    64    30    83 1   
    65    31    84 1   
    66    32    33 ar  
    67    32    37 ar  
    68    33    34 ar  
    69    33    85 1   
    70    34    35 ar  
    71    34    86 1   
    72    35    36 ar  
    73    35    87 1   
    74    36    37 ar  
    75    36    88 1   
    76    37    89 1   
    77    38    39 1   
    78    38    90 1   
    79    38   106 1   
    80    39    40 1   
    81    39    42 1   
    82    39    91 1   
    83    40    41 2   
    84    42    43 1   
    85    42    44 1   
    86    42    92 1   
    87    43    93 1   
    88    43    94 1   
    89    43    95 1   
    90    44    96 1   
    91    44    97 1   
    92    44    98 1   
    93    45   106 2   
    94    46    47 1   
    95    46   106 1   
    96    47    48 1   
    97    47    99 1   
    98    47   100 1   
    99    48    49 ar  
   100    48    53 ar  
   101    49    50 ar  
   102    49   101 1   
   103    50    51 ar  
   104    50   102 1   
   105    51    52 ar  
   106    51   103 1   
   107    52    53 ar  
   108    52   104 1   
   109    53   105 1   
@<TRIPOS>SUBSTRUCTURE
     1 0E9         1 TEMP              0 ****  ****    0 ROOT
