@<TRIPOS>MOLECULE
0EA
   28    28     1     0     0
SMALL
No Charge or Current Charge


@<TRIPOS>ATOM
      1 O1          -3.3350     1.7340    -1.3530 oh         1 0EA      -0.574100
      2 C5          -2.6590     0.8040    -0.6080 ca         1 0EA       0.033100
      3 C6          -1.3050     1.0030    -0.2880 ca         1 0EA      -0.160000
      4 C7          -3.3220    -0.3560    -0.1620 ca         1 0EA       0.089100
      5 O5          -4.6360    -0.5400    -0.4780 oh         1 0EA      -0.552100
      6 C8          -2.6340    -1.3110     0.6000 ca         1 0EA      -0.130000
      7 C9          -1.2800    -1.1100     0.9200 ca         1 0EA      -0.099000
      8 C10         -0.6000     0.0500     0.4790 ca         1 0EA      -0.070300
      9 C11          0.8820     0.3110     0.7980 c3         1 0EA       0.224600
     10 O8           1.3530    -0.5040     1.8670 oh         1 0EA      -0.668000
     11 C12          1.8190    -0.0200    -0.4070 c3         1 0EA      -0.009500
     12 N6           2.5410    -1.3500    -0.1880 n7         1 0EA      -0.897400
     13 C13          1.8100    -2.5550    -0.6240 c3         1 0EA       0.162100
     14 C14          2.7720     1.2050    -0.7020 c          1 0EA       0.721000
     15 O3           3.9770     1.0000    -0.7930 o          1 0EA      -0.720000
     16 H9          -0.7920     1.8970    -0.6340 ha         1 0EA       0.121000
     17 H10         -4.8940     0.2480    -1.0080 ho         1 0EA       0.469000
     18 H11         -3.1470    -2.2060     0.9430 ha         1 0EA       0.113000
     19 H12         -0.7640    -1.8640     1.5110 ha         1 0EA       0.127000
     20 H13          0.9800     1.3730     1.0670 h1         1 0EA       0.095700
     21 H14          1.9500    -1.1010     1.3310 ho         1 0EA       0.466000
     22 H15          1.1980    -0.0990    -1.3110 h1         1 0EA       0.024700
     23 H16          3.4160    -1.3050    -0.7370 hn         1 0EA       0.454000
     24 H18          0.8690    -2.6660    -0.0710 h1         1 0EA       0.010367
     25 H19          1.5780    -2.5020    -1.6960 h1         1 0EA       0.010367
     26 H20          2.4160    -3.4530    -0.4480 h1         1 0EA       0.010367
     27 H2          -2.7210     2.4700    -1.5750 ho         1 0EA       0.469000
     28 OXT          2.2700     2.3070    -0.8820 o          1 0EA      -0.720000
@<TRIPOS>BOND
     1     1     2 1   
     2     1    27 1   
     3     2     3 ar  
     4     2     4 ar  
     5     3     8 ar  
     6     3    16 1   
     7     4     5 1   
     8     4     6 ar  
     9     5    17 1   
    10     6     7 ar  
    11     6    18 1   
    12     7     8 ar  
    13     7    19 1   
    14     8     9 1   
    15     9    10 1   
    16     9    11 1   
    17     9    20 1   
    18    10    21 1   
    19    11    12 1   
    20    11    14 1   
    21    11    22 1   
    22    12    13 1   
    23    12    23 1   
    24    13    24 1   
    25    13    25 1   
    26    13    26 1   
    27    14    15 1   
    28    14    28 1   
@<TRIPOS>SUBSTRUCTURE
     1 0EA         1 TEMP              0 ****  ****    0 ROOT
