@<TRIPOS>MOLECULE
0EA
   28    28     1     0     0
SMALL
abcg2


@<TRIPOS>ATOM
      1 O1          -3.2520     1.0450    -1.7090 oh         1 0EA      -0.574100
      2 C5          -2.5230     0.4330    -0.7440 ca         1 0EA       0.033100
      3 C6          -1.2220     0.7750    -0.4280 ca         1 0EA      -0.160000
      4 C7          -3.1640    -0.6020    -0.0490 ca         1 0EA       0.089100
      5 O5          -4.4360    -0.9680    -0.3310 oh         1 0EA      -0.552100
      6 C8          -2.4730    -1.2580     0.9550 ca         1 0EA      -0.130000
      7 C9          -1.1620    -0.9060     1.2680 ca         1 0EA      -0.099000
      8 C10         -0.5170     0.1060     0.5740 ca         1 0EA      -0.070300
      9 C11          0.9210     0.4980     0.8470 c3         1 0EA       0.224600
     10 O8           1.4350    -0.1220     1.9950 oh         1 0EA      -0.668000
     11 C12          1.8490     0.1510    -0.3360 c3         1 0EA      -0.009500
     12 N6           2.0810    -1.2800    -0.3330 n7         1 0EA      -0.897400
     13 C13          1.2670    -2.0480    -1.2540 c3         1 0EA       0.162100
     14 C14          3.1870     0.9340    -0.2280 c          1 0EA       0.721000
     15 O3           4.2390     0.2840    -0.3870 o          1 0EA      -0.720000
     16 H9          -0.7430     1.5800    -0.9790 ha         1 0EA       0.121000
     17 H10         -4.7880    -0.4290    -1.0490 ho         1 0EA       0.469000
     18 H11         -2.9680    -2.0540     1.4980 ha         1 0EA       0.113000
     19 H12         -0.6520    -1.4370     2.0590 ha         1 0EA       0.127000
     20 H13          0.9560     1.5810     0.9990 h1         1 0EA       0.095700
     21 H14          1.7800    -0.9690     1.6540 ho         1 0EA       0.466000
     22 H15          1.3740     0.4840    -1.2720 h1         1 0EA       0.024700
     23 H16          3.0640    -1.4210    -0.5340 hn         1 0EA       0.454000
     24 H18          0.2150    -1.9970    -0.9770 h1         1 0EA       0.010367
     25 H19          1.3520    -1.7130    -2.2970 h1         1 0EA       0.010367
     26 H20          1.5640    -3.0970    -1.2180 h1         1 0EA       0.010367
     27 H2          -2.7340     1.7300    -2.1440 ho         1 0EA       0.469000
     28 OXT          3.0900     2.1580    -0.0270 o          1 0EA      -0.720000
@<TRIPOS>BOND
     1     1     2 1   
     2     1    27 1   
     3     2     3 ar  
     4     2     4 ar  
     5     3     8 ar  
     6     3    16 1   
     7     4     5 1   
     8     4     6 ar  
     9     5    17 1   
    10     6     7 ar  
    11     6    18 1   
    12     7     8 ar  
    13     7    19 1   
    14     8     9 1   
    15     9    10 1   
    16     9    11 1   
    17     9    20 1   
    18    10    21 1   
    19    11    12 1   
    20    11    14 1   
    21    11    22 1   
    22    12    13 1   
    23    12    23 1   
    24    13    24 1   
    25    13    25 1   
    26    13    26 1   
    27    14    15 1   
    28    14    28 1   
@<TRIPOS>SUBSTRUCTURE
     1 0EA         1 TEMP              0 ****  ****    0 ROOT
