@<TRIPOS>MOLECULE
0EC
   40    42     1     0     0
SMALL
bcc


@<TRIPOS>ATOM
      1 C1          -1.6210    -0.2940    -0.2270 ca         1 0EC       0.965900
      2 N2          -0.7390     0.6860    -0.2780 nb         1 0EC      -0.821000
      3 C3           0.5610     0.3360    -0.1810 ca         1 0EC       0.513600
      4 C4           0.9830    -0.9950    -0.0400 ca         1 0EC      -0.352600
      5 C5          -0.0690    -1.9650    -0.0380 ca         1 0EC       0.759200
      6 N5           0.1920    -3.2800     0.0860 nv         1 0EC      -0.956500
      7 N6          -1.3320    -1.6070    -0.1270 nb         1 0EC      -0.867000
      8 C7           1.5440     1.3540    -0.2200 ca         1 0EC      -0.290300
      9 C8           2.8770     1.0510    -0.1120 ca         1 0EC       0.167100
     10 O8           3.8730     1.9430    -0.1390 os         1 0EC      -0.294900
     11 C9           3.2970    -0.3060     0.0510 ca         1 0EC       0.086100
     12 O9           4.6280    -0.4770     0.1640 os         1 0EC      -0.295900
     13 C10          2.3570    -1.2990     0.0840 ca         1 0EC      -0.148000
     14 N11         -2.9430     0.0270    -0.2710 nh         1 0EC      -0.776300
     15 C12         -3.9820    -0.9730    -0.4180 c6         1 0EC       0.189300
     16 C13         -5.1910    -0.6070     0.4350 c6         1 0EC       0.132800
     17 N14         -5.6850     0.7410     0.2070 n7         1 0EC      -0.786200
     18 C15         -4.6060     1.7060     0.3330 c6         1 0EC       0.132800
     19 C16         -3.3850     1.3840    -0.5220 c6         1 0EC       0.189300
     20 C8A          3.5440     3.3110    -0.2950 c3         1 0EC       0.119700
     21 C9A          5.1110    -1.7940     0.3220 c3         1 0EC       0.121700
     22 H7           1.2030     2.3740    -0.3370 ha         1 0EC       0.156000
     23 H10          2.6720    -2.3250     0.2190 ha         1 0EC       0.127000
     24 HN14        -6.0680     0.7970    -0.7310 hn         1 0EC       0.344800
     25 H12         -4.2880    -1.0400    -1.4720 h1         1 0EC       0.057950
     26 H12A        -3.5980    -1.9460    -0.1280 h1         1 0EC       0.057950
     27 H13         -5.9950    -1.3200     0.2420 h1         1 0EC       0.060450
     28 H13A        -4.9230    -0.7020     1.4920 h1         1 0EC       0.060450
     29 HN5          1.1100    -3.6460    -0.0930 hn         1 0EC       0.430800
     30 H15         -4.9780     2.6980     0.0690 h1         1 0EC       0.060450
     31 HN5A        -0.5690    -3.9200    -0.0690 hn         1 0EC       0.430800
     32 H15A        -4.3020     1.7470     1.3840 h1         1 0EC       0.060450
     33 H16         -2.5760     2.0760    -0.3020 h1         1 0EC       0.057950
     34 H16A        -3.6410     1.5040    -1.5840 h1         1 0EC       0.057950
     35 H8A          2.9130     3.6720     0.5210 h1         1 0EC       0.044367
     36 H8AA         4.4840     3.8560    -0.2820 h1         1 0EC       0.044367
     37 H8AB         3.0370     3.4990    -1.2450 h1         1 0EC       0.044367
     38 H9A          6.1940    -1.7220     0.3860 h1         1 0EC       0.038367
     39 H9AA         4.7350    -2.2610     1.2360 h1         1 0EC       0.038367
     40 H9AB         4.8500    -2.4300    -0.5290 h1         1 0EC       0.038367
@<TRIPOS>BOND
     1     1     2 ar  
     2     1     7 ar  
     3     1    14 1   
     4     2     3 ar  
     5     3     4 ar  
     6     3     8 ar  
     7     4     5 ar  
     8     4    13 ar  
     9     5     6 1   
    10     5     7 ar  
    11     6    29 1   
    12     6    31 1   
    13     8     9 ar  
    14     8    22 1   
    15     9    10 1   
    16     9    11 ar  
    17    10    20 1   
    18    11    12 1   
    19    11    13 ar  
    20    12    21 1   
    21    13    23 1   
    22    14    15 1   
    23    14    19 1   
    24    15    16 1   
    25    15    25 1   
    26    15    26 1   
    27    16    17 1   
    28    16    27 1   
    29    16    28 1   
    30    17    18 1   
    31    17    24 1   
    32    18    19 1   
    33    18    30 1   
    34    18    32 1   
    35    19    33 1   
    36    19    34 1   
    37    20    35 1   
    38    20    36 1   
    39    20    37 1   
    40    21    38 1   
    41    21    39 1   
    42    21    40 1   
@<TRIPOS>SUBSTRUCTURE
     1 0EC         1 TEMP              0 ****  ****    0 ROOT
