@<TRIPOS>MOLECULE
0EC
   40    42     1     0     0
SMALL
No Charge or Current Charge


@<TRIPOS>ATOM
      1 C1          -1.5850    -0.3380    -0.0020 ca         1 0EC       0.439900
      2 N2          -0.6870     0.6670    -0.0690 nb         1 0EC      -0.295000
      3 C3           0.6220     0.3510    -0.0540 ca         1 0EC       0.120000
      4 C4           1.0310    -0.9960     0.0320 ca         1 0EC      -0.222000
      5 C5           0.0080    -1.9650     0.0980 ca         1 0EC       0.430900
      6 N5           0.2430    -3.3010     0.1720 nv         1 0EC      -1.066900
      7 N6          -1.2860    -1.6470     0.0820 nb         1 0EC      -0.341000
      8 C7           1.5910     1.3640    -0.1230 ca         1 0EC      -0.207000
      9 C8           2.9680     1.0510    -0.1070 ca         1 0EC       0.167100
     10 O8           3.9400     2.0370    -0.1740 os         1 0EC      -0.318100
     11 C9           3.3800    -0.2990    -0.0180 ca         1 0EC       0.086100
     12 O9           4.7390    -0.5770    -0.0000 os         1 0EC      -0.319100
     13 C10          2.4080    -1.3220     0.0520 ca         1 0EC      -0.130000
     14 N11         -2.9640     0.0150    -0.0140 nh         1 0EC      -0.776300
     15 C12         -4.0360    -1.0280    -0.2090 c6         1 0EC       0.189300
     16 C13         -5.4410    -0.5860     0.3160 c6         1 0EC       0.132800
     17 N14         -5.8590     0.7530    -0.1860 n7         1 0EC      -0.841400
     18 C15         -4.8310     1.7740     0.1600 c6         1 0EC       0.132800
     19 C16         -3.4040     1.4140    -0.3700 c6         1 0EC       0.189300
     20 C8A          3.6200     3.4360    -0.2660 c3         1 0EC       0.142900
     21 C9A          5.2560    -1.9170     0.0890 c3         1 0EC       0.144900
     22 H7           1.2530     2.3940    -0.1890 ha         1 0EC       0.138000
     23 H10          2.7130    -2.3610     0.1250 ha         1 0EC       0.109000
     24 HN14        -5.9280     0.7030    -1.2110 hn         1 0EC       0.400000
     25 H12         -4.1200    -1.2710    -1.2790 h1         1 0EC       0.057950
     26 H12A        -3.7790    -1.9620     0.3120 h1         1 0EC       0.057950
     27 H13         -6.1880    -1.3410     0.0270 h1         1 0EC       0.060450
     28 H13A        -5.4130    -0.5660     1.4160 h1         1 0EC       0.060450
     29 HN5          1.1610    -3.6450    -0.0870 hn         1 0EC       0.486000
     30 H15         -5.1290     2.7530    -0.2440 h1         1 0EC       0.060450
     31 HN5A        -0.5400    -3.9300     0.0140 hn         1 0EC       0.486000
     32 H15A        -4.7810     1.8790     1.2540 h1         1 0EC       0.060450
     33 H16         -2.7130     2.1640     0.0390 h1         1 0EC       0.057950
     34 H16A        -3.3950     1.5330    -1.4640 h1         1 0EC       0.057950
     35 H8A          3.0420     3.7620     0.6080 h1         1 0EC       0.044367
     36 H8AA         4.5390     4.0340    -0.3080 h1         1 0EC       0.044367
     37 H8AB         3.0380     3.6450    -1.1730 h1         1 0EC       0.044367
     38 H9A          6.3530    -1.9010     0.0870 h1         1 0EC       0.038367
     39 H9AA         4.9250    -2.4010     1.0170 h1         1 0EC       0.038367
     40 H9AB         4.9230    -2.5210    -0.7640 h1         1 0EC       0.038367
@<TRIPOS>BOND
     1     1     2 ar  
     2     1     7 ar  
     3     1    14 1   
     4     2     3 ar  
     5     3     4 ar  
     6     3     8 ar  
     7     4     5 ar  
     8     4    13 ar  
     9     5     6 1   
    10     5     7 ar  
    11     6    29 1   
    12     6    31 1   
    13     8     9 ar  
    14     8    22 1   
    15     9    10 1   
    16     9    11 ar  
    17    10    20 1   
    18    11    12 1   
    19    11    13 ar  
    20    12    21 1   
    21    13    23 1   
    22    14    15 1   
    23    14    19 1   
    24    15    16 1   
    25    15    25 1   
    26    15    26 1   
    27    16    17 1   
    28    16    27 1   
    29    16    28 1   
    30    17    18 1   
    31    17    24 1   
    32    18    19 1   
    33    18    30 1   
    34    18    32 1   
    35    19    33 1   
    36    19    34 1   
    37    20    35 1   
    38    20    36 1   
    39    20    37 1   
    40    21    38 1   
    41    21    39 1   
    42    21    40 1   
@<TRIPOS>SUBSTRUCTURE
     1 0EC         1 TEMP              0 ****  ****    0 ROOT
