@<TRIPOS>MOLECULE
0ED
   91    93     1     0     0
SMALL
bcc


@<TRIPOS>ATOM
      1 N1           5.1300    -0.1170     0.3400 c          1 0ED       0.464400
      2 N1           4.4100    -0.6240     1.1770 o          1 0ED      -0.407000
      3 N2           6.2780     0.5140     0.6330 os         1 0ED      -0.286500
      4 N2           6.6660     0.5340     2.0090 c3         1 0ED      -0.099700
      5 N3           7.9980     1.2170     2.0820 ca         1 0ED       0.035500
      6 N4           8.1060     2.5190     2.5580 ca         1 0ED      -0.104000
      7 N5           9.3430     3.1500     2.6190 ca         1 0ED      -0.137000
      8 N6          10.4840     2.4820     2.1960 ca         1 0ED      -0.125000
      9 N7          10.3840     1.1810     1.7140 ca         1 0ED      -0.137000
     10 N8           9.1490     0.5540     1.6590 ca         1 0ED      -0.104000
     11 N            4.9100    -0.1210    -0.9850 n7         1 0ED      -0.346000
     12 NA           3.6720    -0.5960    -1.5630 c3         1 0ED      -0.038200
     13 NB           2.6010     0.4860    -1.6290 c3         1 0ED      -0.167000
     14 NG           1.3150     0.0190    -2.3160 c3         1 0ED      -0.212500
     15 ND           0.3910     1.2480    -2.4960 c          1 0ED       0.443500
     16 NE1         -0.6050     1.3660    -1.7380 o          1 0ED      -0.561000
     17 NE2          0.7300     2.0650    -3.3680 o          1 0ED      -0.561000
     18 N1           0.7800    -1.1170    -1.5990 n7         1 0ED      -0.336000
     19 NA1         -0.3690    -1.8120    -2.1660 c3         1 0ED      -0.133500
     20 N           -1.5180    -1.9110    -1.1500 c          1 0ED       0.445200
     21 N           -2.1480    -2.9440    -0.9590 o          1 0ED      -0.421000
     22 NB1          0.0190    -3.1970    -2.6780 c3         1 0ED      -0.133000
     23 NG1          1.0800    -3.1930    -3.7770 c3         1 0ED      -0.100000
     24 ND1          1.5410    -4.6200    -4.0620 c3         1 0ED      -0.204500
     25 ND2          0.5700    -2.5430    -5.0600 c3         1 0ED      -0.204500
     26 N2          -1.7540    -0.7740    -0.4860 n7         1 0ED      -0.358000
     27 NA2         -2.7570    -0.6830     0.5300 c3         1 0ED      -0.122700
     28 N9          -4.1540    -0.5090    -0.0700 c          1 0ED       0.442200
     29 N3          -4.3320     0.0290    -1.1500 o          1 0ED      -0.338000
     30 NB2         -2.4370     0.4940     1.4690 c3         1 0ED      -0.240500
     31 NG2         -1.1370     0.2750     2.1910 ca         1 0ED       0.048500
     32 ND11         0.0680     0.7550     1.6790 ca         1 0ED      -0.124500
     33 ND21        -1.1100    -0.4690     3.3680 ca         1 0ED      -0.124500
     34 NE1          1.2690     0.4830     2.3200 ca         1 0ED      -0.131500
     35 NE2          0.0880    -0.7360     4.0160 ca         1 0ED      -0.131500
     36 NZ           1.2830    -0.2640     3.4900 ca         1 0ED      -0.129000
     37 N11        -10.9260     1.9360    -0.1760 os         1 0ED      -0.265000
     38 N21        -10.6230     1.7450     1.1880 c6         1 0ED      -0.020500
     39 N31         -9.1250     1.7020     1.4260 c6         1 0ED      -0.109000
     40 N4          -8.5230     0.6470     0.6300 n3         1 0ED      -0.249000
     41 N51         -8.8390     0.8590    -0.7720 c6         1 0ED      -0.109000
     42 N61        -10.3420     0.9220    -0.9630 c6         1 0ED      -0.020500
     43 N10         -7.1010     0.5260     0.8760 c3         1 0ED      -0.095000
     44 N11         -6.5490    -0.8110     0.3870 c3         1 0ED      -0.040200
     45 N3          -5.1490    -0.9670     0.7060 n7         1 0ED      -0.374000
     46 N21          5.9250     1.0690     2.6070 hn         1 0ED       0.092500
     47 N22          6.7380    -0.4860     2.3940 hn         1 0ED       0.092500
     48 N41          7.2180     3.0440     2.8890 hn         1 0ED       0.134500
     49 N51          9.4150     4.1610     2.9980 hn         1 0ED       0.127500
     50 N61         11.4480     2.9690     2.2470 hn         1 0ED       0.124000
     51 N71         11.2720     0.6550     1.3880 hn         1 0ED       0.127500
     52 N81          9.0780    -0.4630     1.2910 hn         1 0ED       0.134500
     53 N            5.5320     0.4100    -1.5740 hn         1 0ED       0.206500
     54 NA1          3.8950    -0.9580    -2.5690 hn         1 0ED       0.101000
     55 NA2          3.3180    -1.4520    -0.9920 hn         1 0ED       0.101000
     56 NB1          2.3720     0.8290    -0.6130 hn         1 0ED       0.088500
     57 NB2          2.9930     1.3480    -2.1710 hn         1 0ED       0.088500
     58 NG1          1.5930    -0.3140    -3.3230 hn         1 0ED       0.088000
     59 N1           0.6420    -0.8910    -0.6230 hn         1 0ED       0.173000
     60 NA          -0.7770    -1.2280    -3.0050 hn         1 0ED       0.110000
     61 NB21         0.3850    -3.7840    -1.8300 hn         1 0ED       0.083500
     62 NB3         -0.8690    -3.7150    -3.0550 hn         1 0ED       0.083500
     63 NG           1.9460    -2.6270    -3.4150 hn         1 0ED       0.100000
     64 ND11         0.7120    -5.2310    -4.4300 hn         1 0ED       0.065167
     65 ND12         2.3280    -4.6410    -4.8180 hn         1 0ED       0.065167
     66 ND13         1.9320    -5.1000    -3.1630 hn         1 0ED       0.065167
     67 ND21         0.2700    -1.5040    -4.9100 hn         1 0ED       0.065167
     68 ND22         1.3350    -2.5490    -5.8380 hn         1 0ED       0.065167
     69 ND23        -0.3000    -3.0830    -5.4420 hn         1 0ED       0.065167
     70 N2          -1.3090     0.0860    -0.8520 hn         1 0ED       0.293500
     71 NA3         -2.7440    -1.6040     1.1230 hn         1 0ED       0.102000
     72 NB22        -2.4100     1.4210     0.8900 hn         1 0ED       0.097000
     73 NB31        -3.2490     0.5990     2.1920 hn         1 0ED       0.097000
     74 ND1          0.0640     1.3350     0.7630 hn         1 0ED       0.140500
     75 ND2         -2.0390    -0.8450     3.7830 hn         1 0ED       0.140500
     76 NE1          2.2000     0.8440     1.9020 hn         1 0ED       0.127500
     77 NE21         0.0880    -1.3150     4.9310 hn         1 0ED       0.127500
     78 NZ           2.2210    -0.4760     3.9880 hn         1 0ED       0.124000
     79 N31         -8.6900     2.6890     1.1950 hn         1 0ED       0.084000
     80 N32         -8.9410     1.5080     2.4850 hn         1 0ED       0.084000
     81 N511        -8.3750     1.7860    -1.1540 hn         1 0ED       0.084000
     82 N52         -8.4540     0.0350    -1.3770 hn         1 0ED       0.084000
     83 N611       -10.7780    -0.0560    -0.7140 hn         1 0ED       0.085000
     84 N62        -10.5780     1.1400    -2.0060 hn         1 0ED       0.085000
     85 N1'1        -6.5290     1.3510     0.4200 hn         1 0ED       0.080000
     86 N1'2        -6.9370     0.5870     1.9550 hn         1 0ED       0.080000
     87 N2'1        -7.0980    -1.6250     0.8610 hn         1 0ED       0.094500
     88 N2'2        -6.6720    -0.9210    -0.6900 hn         1 0ED       0.094500
     89 NN21        -4.9180    -1.3960     1.5880 hn         1 0ED       0.198500
     90 N211       -11.0660     2.5750     1.7410 hn         1 0ED       0.085000
     91 N221       -11.0760     0.8130     1.5540 hn         1 0ED       0.085000
@<TRIPOS>BOND
     1     1     2 2   
     2     1     3 1   
     3     1    11 1   
     4     3     4 1   
     5     4     5 1   
     6     4    46 1   
     7     4    47 1   
     8     5     6 ar  
     9     5    10 ar  
    10     6     7 ar  
    11     6    48 1   
    12     7     8 ar  
    13     7    49 1   
    14     8     9 ar  
    15     8    50 1   
    16     9    10 ar  
    17     9    51 1   
    18    10    52 1   
    19    11    12 1   
    20    11    53 1   
    21    12    13 1   
    22    12    54 1   
    23    12    55 1   
    24    13    14 1   
    25    13    56 1   
    26    13    57 1   
    27    14    15 1   
    28    14    18 1   
    29    14    58 1   
    30    15    16 1   
    31    15    17 1   
    32    18    19 1   
    33    18    59 1   
    34    19    20 1   
    35    19    22 1   
    36    19    60 1   
    37    20    21 2   
    38    20    26 1   
    39    22    23 1   
    40    22    61 1   
    41    22    62 1   
    42    23    24 1   
    43    23    25 1   
    44    23    63 1   
    45    24    64 1   
    46    24    65 1   
    47    24    66 1   
    48    25    67 1   
    49    25    68 1   
    50    25    69 1   
    51    26    27 1   
    52    26    70 1   
    53    27    28 1   
    54    27    30 1   
    55    27    71 1   
    56    28    29 2   
    57    28    45 1   
    58    30    31 1   
    59    30    72 1   
    60    30    73 1   
    61    31    32 ar  
    62    31    33 ar  
    63    32    34 ar  
    64    32    74 1   
    65    33    35 ar  
    66    33    75 1   
    67    34    36 ar  
    68    34    76 1   
    69    35    36 ar  
    70    35    77 1   
    71    36    78 1   
    72    37    38 1   
    73    37    42 1   
    74    38    39 1   
    75    38    90 1   
    76    38    91 1   
    77    39    40 1   
    78    39    79 1   
    79    39    80 1   
    80    40    41 1   
    81    40    43 1   
    82    41    42 1   
    83    41    81 1   
    84    41    82 1   
    85    42    83 1   
    86    42    84 1   
    87    43    44 1   
    88    43    85 1   
    89    43    86 1   
    90    44    45 1   
    91    44    87 1   
    92    44    88 1   
    93    45    89 1   
@<TRIPOS>SUBSTRUCTURE
     1 0ED         1 TEMP              0 ****  ****    0 ROOT
