@<TRIPOS>MOLECULE
0ED
   91    93     1     0     0
SMALL
No Charge or Current Charge


@<TRIPOS>ATOM
      1 C1           5.1650     0.3940     0.6260 c          1 0ED       0.629100
      2 O1           4.5080    -0.0370     1.5600 o          1 0ED      -0.547000
      3 O2           6.3310     1.0880     0.7250 os         1 0ED      -0.469100
      4 C2           6.8350     1.3490     2.0450 c3         1 0ED       0.229900
      5 C3           8.1350     2.1330     1.9180 ca         1 0ED      -0.090300
      6 C4           8.1160     3.5420     1.8860 ca         1 0ED      -0.086000
      7 C5           9.3170     4.2640     1.7700 ca         1 0ED      -0.119000
      8 C6          10.5430     3.5840     1.6860 ca         1 0ED      -0.107000
      9 C7          10.5680     2.1790     1.7160 ca         1 0ED      -0.119000
     10 C8           9.3680     1.4550     1.8310 ca         1 0ED      -0.086000
     11 N            4.8560     0.2410    -0.6950 ns         1 0ED      -0.490900
     12 CA           3.6620    -0.4340    -1.2070 c3         1 0ED       0.108000
     13 CB           2.4050     0.4600    -1.1350 c3         1 0ED      -0.088400
     14 CG           1.1810    -0.1390    -1.8670 c3         1 0ED       0.053500
     15 CD           0.0170     0.9310    -1.9760 c          1 0ED       0.695000
     16 OE1         -0.9250     0.8560    -1.1950 o          1 0ED      -0.721000
     17 OE2          0.0440     1.7190    -2.9120 o          1 0ED      -0.721000
     18 N1           0.8100    -1.4470    -1.2180 n7         1 0ED      -0.912400
     19 CA1         -0.2490    -2.2540    -1.9180 c3         1 0ED       0.132500
     20 C           -1.4380    -2.6370    -0.9630 c          1 0ED       0.583100
     21 O           -1.6980    -3.7820    -0.6070 o          1 0ED      -0.660100
     22 CB1          0.3820    -3.5030    -2.6040 c3         1 0ED      -0.054400
     23 CG1          1.4020    -3.2200    -3.7460 c3         1 0ED      -0.060700
     24 CD1          2.0830    -4.5280    -4.2120 c3         1 0ED      -0.086600
     25 CD2          0.7680    -2.4790    -4.9490 c3         1 0ED      -0.086600
     26 N2          -2.1920    -1.5610    -0.5530 ns         1 0ED      -0.502900
     27 CA2         -3.2500    -1.6010     0.4820 c3         1 0ED       0.052700
     28 C9          -4.5760    -0.9740    -0.0400 c          1 0ED       0.580100
     29 O3          -4.6670    -0.3700    -1.1010 o          1 0ED      -0.577100
     30 CB2         -2.7590    -0.9070     1.7790 c3         1 0ED      -0.036100
     31 CG2         -1.3640    -1.3540     2.2060 ca         1 0ED      -0.077300
     32 CD11        -0.2620    -0.4880     2.0590 ca         1 0ED      -0.106500
     33 CD21        -1.1610    -2.6470     2.7270 ca         1 0ED      -0.106500
     34 CE1          1.0260    -0.9100     2.4290 ca         1 0ED      -0.113500
     35 CE2          0.1290    -3.0690     3.0960 ca         1 0ED      -0.113500
     36 CZ           1.2230    -2.2000     2.9460 ca         1 0ED      -0.111000
     37 O11        -10.4920     3.3110    -0.4310 os         1 0ED      -0.455000
     38 C21         -9.9720     3.5010     0.9060 c6         1 0ED       0.153100
     39 C31         -8.5300     2.9200     1.0130 c6         1 0ED       0.127800
     40 N4          -8.4760     1.4800     0.6050 n3         1 0ED      -0.723600
     41 C51         -9.0960     1.2980    -0.7490 c6         1 0ED       0.127800
     42 C61        -10.5250     1.9170    -0.8210 c6         1 0ED       0.153100
     43 C10         -7.1060     0.9120     0.7210 c3         1 0ED       0.141800
     44 C11         -7.0130    -0.6230     0.5190 c3         1 0ED       0.106000
     45 N3          -5.6700    -1.1540     0.7850 ns         1 0ED      -0.518900
     46 H21          6.1110     1.9330     2.6300 h1         1 0ED       0.053200
     47 H22          7.0240     0.4100     2.5830 h1         1 0ED       0.053200
     48 H41          7.1710     4.0760     1.9480 ha         1 0ED       0.116500
     49 H51          9.2960     5.3520     1.7460 ha         1 0ED       0.109500
     50 H61         11.4720     4.1430     1.5960 ha         1 0ED       0.106000
     51 H71         11.5170     1.6510     1.6490 ha         1 0ED       0.109500
     52 H81          9.3960     0.3680     1.8510 ha         1 0ED       0.116500
     53 H            5.5090     0.6510    -1.3510 hn         1 0ED       0.316500
     54 HA1          3.8470    -0.7160    -2.2520 h1         1 0ED       0.061700
     55 HA2          3.4970    -1.3570    -0.6340 h1         1 0ED       0.061700
     56 HB1          2.1500     0.6600    -0.0870 hc         1 0ED       0.049200
     57 HB2          2.6420     1.4280    -1.5920 hc         1 0ED       0.049200
     58 HG1          1.4950    -0.3330    -2.9010 h1         1 0ED       0.048700
     59 H1           0.4670    -1.2280    -0.2710 hn         1 0ED       0.433000
     60 HA          -0.7240    -1.6510    -2.7030 h1         1 0ED       0.070700
     61 HB21         0.8710    -4.1090    -1.8310 hc         1 0ED       0.044200
     62 HB3         -0.4260    -4.1220    -3.0140 hc         1 0ED       0.044200
     63 HG           2.1960    -2.5800    -3.3410 hc         1 0ED       0.060700
     64 HD11         1.3470    -5.2230    -4.6330 hc         1 0ED       0.025867
     65 HD12         2.8380    -4.3200    -4.9800 hc         1 0ED       0.025867
     66 HD13         2.5850    -5.0250    -3.3730 hc         1 0ED       0.025867
     67 HD21         0.3810    -1.4970    -4.6560 hc         1 0ED       0.025867
     68 HD22         1.5130    -2.3170    -5.7370 hc         1 0ED       0.025867
     69 HD23        -0.0580    -3.0620    -5.3740 hc         1 0ED       0.025867
     70 H2          -1.8630    -0.6440    -0.8680 hn         1 0ED       0.403500
     71 HA3         -3.4730    -2.6490     0.7200 h1         1 0ED       0.062700
     72 HB22        -2.7710     0.1790     1.6220 hc         1 0ED       0.057700
     73 HB31        -3.4740    -1.1010     2.5890 hc         1 0ED       0.057700
     74 HD1         -0.4020     0.5120     1.6540 ha         1 0ED       0.122500
     75 HD2         -2.0010    -3.3280     2.8390 ha         1 0ED       0.122500
     76 HE1          1.8720    -0.2360     2.3130 ha         1 0ED       0.109500
     77 HE21         0.2800    -4.0700     3.4950 ha         1 0ED       0.109500
     78 HZ           2.2210    -2.5260     3.2290 ha         1 0ED       0.106000
     79 H31         -7.8620     3.5220     0.3790 h1         1 0ED       0.044700
     80 H32         -8.1800     3.0370     2.0490 h1         1 0ED       0.044700
     81 H511        -8.4700     1.7680    -1.5220 h1         1 0ED       0.044700
     82 H52         -9.1730     0.2310    -1.0020 h1         1 0ED       0.044700
     83 H611       -11.2050     1.3700    -0.1530 h1         1 0ED       0.045700
     84 H62        -10.9150     1.8400    -1.8460 h1         1 0ED       0.045700
     85 H1'1        -6.4380     1.4030    -0.0000 h1         1 0ED       0.040700
     86 H1'2        -6.7100     1.1330     1.7220 h1         1 0ED       0.040700
     87 H2'1        -7.7210    -1.1160     1.1980 h1         1 0ED       0.055200
     88 H2'2        -7.2950    -0.8820    -0.5090 h1         1 0ED       0.055200
     89 HN21        -5.5200    -1.6780     1.6400 hn         1 0ED       0.308500
     90 H211        -9.9610     4.5750     1.1390 h1         1 0ED       0.045700
     91 H221       -10.6330     3.0010     1.6280 h1         1 0ED       0.045700
@<TRIPOS>BOND
     1     1     2 2   
     2     1     3 1   
     3     1    11 1   
     4     3     4 1   
     5     4     5 1   
     6     4    46 1   
     7     4    47 1   
     8     5     6 ar  
     9     5    10 ar  
    10     6     7 ar  
    11     6    48 1   
    12     7     8 ar  
    13     7    49 1   
    14     8     9 ar  
    15     8    50 1   
    16     9    10 ar  
    17     9    51 1   
    18    10    52 1   
    19    11    12 1   
    20    11    53 1   
    21    12    13 1   
    22    12    54 1   
    23    12    55 1   
    24    13    14 1   
    25    13    56 1   
    26    13    57 1   
    27    14    15 1   
    28    14    18 1   
    29    14    58 1   
    30    15    16 1   
    31    15    17 1   
    32    18    19 1   
    33    18    59 1   
    34    19    20 1   
    35    19    22 1   
    36    19    60 1   
    37    20    21 2   
    38    20    26 1   
    39    22    23 1   
    40    22    61 1   
    41    22    62 1   
    42    23    24 1   
    43    23    25 1   
    44    23    63 1   
    45    24    64 1   
    46    24    65 1   
    47    24    66 1   
    48    25    67 1   
    49    25    68 1   
    50    25    69 1   
    51    26    27 1   
    52    26    70 1   
    53    27    28 1   
    54    27    30 1   
    55    27    71 1   
    56    28    29 2   
    57    28    45 1   
    58    30    31 1   
    59    30    72 1   
    60    30    73 1   
    61    31    32 ar  
    62    31    33 ar  
    63    32    34 ar  
    64    32    74 1   
    65    33    35 ar  
    66    33    75 1   
    67    34    36 ar  
    68    34    76 1   
    69    35    36 ar  
    70    35    77 1   
    71    36    78 1   
    72    37    38 1   
    73    37    42 1   
    74    38    39 1   
    75    38    90 1   
    76    38    91 1   
    77    39    40 1   
    78    39    79 1   
    79    39    80 1   
    80    40    41 1   
    81    40    43 1   
    82    41    42 1   
    83    41    81 1   
    84    41    82 1   
    85    42    83 1   
    86    42    84 1   
    87    43    44 1   
    88    43    85 1   
    89    43    86 1   
    90    44    45 1   
    91    44    87 1   
    92    44    88 1   
    93    45    89 1   
@<TRIPOS>SUBSTRUCTURE
     1 0ED         1 TEMP              0 ****  ****    0 ROOT
