@<TRIPOS>MOLECULE
0ED
   91    93     1     0     0
SMALL
abcg2


@<TRIPOS>ATOM
      1 C1           5.1300    -0.1170     0.3400 c          1 0ED       0.629100
      2 O1           4.4100    -0.6240     1.1770 o          1 0ED      -0.547000
      3 O2           6.2780     0.5140     0.6330 os         1 0ED      -0.469100
      4 C2           6.6660     0.5340     2.0090 c3         1 0ED       0.229900
      5 C3           7.9980     1.2170     2.0820 ca         1 0ED      -0.090300
      6 C4           8.1060     2.5190     2.5580 ca         1 0ED      -0.086000
      7 C5           9.3430     3.1500     2.6190 ca         1 0ED      -0.119000
      8 C6          10.4840     2.4820     2.1960 ca         1 0ED      -0.107000
      9 C7          10.3840     1.1810     1.7140 ca         1 0ED      -0.119000
     10 C8           9.1490     0.5540     1.6590 ca         1 0ED      -0.086000
     11 N            4.9100    -0.1210    -0.9850 ns         1 0ED      -0.490900
     12 CA           3.6720    -0.5960    -1.5630 c3         1 0ED       0.108000
     13 CB           2.6010     0.4860    -1.6290 c3         1 0ED      -0.088400
     14 CG           1.3150     0.0190    -2.3160 c3         1 0ED       0.053500
     15 CD           0.3910     1.2480    -2.4960 c          1 0ED       0.695000
     16 OE1         -0.6050     1.3660    -1.7380 o          1 0ED      -0.721000
     17 OE2          0.7300     2.0650    -3.3680 o          1 0ED      -0.721000
     18 N1           0.7800    -1.1170    -1.5990 n7         1 0ED      -0.912400
     19 CA1         -0.3690    -1.8120    -2.1660 c3         1 0ED       0.132500
     20 C           -1.5180    -1.9110    -1.1500 c          1 0ED       0.583100
     21 O           -2.1480    -2.9440    -0.9590 o          1 0ED      -0.660100
     22 CB1          0.0190    -3.1970    -2.6780 c3         1 0ED      -0.054400
     23 CG1          1.0800    -3.1930    -3.7770 c3         1 0ED      -0.060700
     24 CD1          1.5410    -4.6200    -4.0620 c3         1 0ED      -0.086600
     25 CD2          0.5700    -2.5430    -5.0600 c3         1 0ED      -0.086600
     26 N2          -1.7540    -0.7740    -0.4860 ns         1 0ED      -0.502900
     27 CA2         -2.7570    -0.6830     0.5300 c3         1 0ED       0.052700
     28 C9          -4.1540    -0.5090    -0.0700 c          1 0ED       0.580100
     29 O3          -4.3320     0.0290    -1.1500 o          1 0ED      -0.577100
     30 CB2         -2.4370     0.4940     1.4690 c3         1 0ED      -0.036100
     31 CG2         -1.1370     0.2750     2.1910 ca         1 0ED      -0.077300
     32 CD11         0.0680     0.7550     1.6790 ca         1 0ED      -0.106500
     33 CD21        -1.1100    -0.4690     3.3680 ca         1 0ED      -0.106500
     34 CE1          1.2690     0.4830     2.3200 ca         1 0ED      -0.113500
     35 CE2          0.0880    -0.7360     4.0160 ca         1 0ED      -0.113500
     36 CZ           1.2830    -0.2640     3.4900 ca         1 0ED      -0.111000
     37 O11        -10.9260     1.9360    -0.1760 os         1 0ED      -0.455000
     38 C21        -10.6230     1.7450     1.1880 c6         1 0ED       0.153100
     39 C31         -9.1250     1.7020     1.4260 c6         1 0ED       0.127800
     40 N4          -8.5230     0.6470     0.6300 n3         1 0ED      -0.723600
     41 C51         -8.8390     0.8590    -0.7720 c6         1 0ED       0.127800
     42 C61        -10.3420     0.9220    -0.9630 c6         1 0ED       0.153100
     43 C10         -7.1010     0.5260     0.8760 c3         1 0ED       0.141800
     44 C11         -6.5490    -0.8110     0.3870 c3         1 0ED       0.106000
     45 N3          -5.1490    -0.9670     0.7060 ns         1 0ED      -0.518900
     46 H21          5.9250     1.0690     2.6070 h1         1 0ED       0.053200
     47 H22          6.7380    -0.4860     2.3940 h1         1 0ED       0.053200
     48 H41          7.2180     3.0440     2.8890 ha         1 0ED       0.116500
     49 H51          9.4150     4.1610     2.9980 ha         1 0ED       0.109500
     50 H61         11.4480     2.9690     2.2470 ha         1 0ED       0.106000
     51 H71         11.2720     0.6550     1.3880 ha         1 0ED       0.109500
     52 H81          9.0780    -0.4630     1.2910 ha         1 0ED       0.116500
     53 H            5.5320     0.4100    -1.5740 hn         1 0ED       0.316500
     54 HA1          3.8950    -0.9580    -2.5690 h1         1 0ED       0.061700
     55 HA2          3.3180    -1.4520    -0.9920 h1         1 0ED       0.061700
     56 HB1          2.3720     0.8290    -0.6130 hc         1 0ED       0.049200
     57 HB2          2.9930     1.3480    -2.1710 hc         1 0ED       0.049200
     58 HG1          1.5930    -0.3140    -3.3230 h1         1 0ED       0.048700
     59 H1           0.6420    -0.8910    -0.6230 hn         1 0ED       0.433000
     60 HA          -0.7770    -1.2280    -3.0050 h1         1 0ED       0.070700
     61 HB21         0.3850    -3.7840    -1.8300 hc         1 0ED       0.044200
     62 HB3         -0.8690    -3.7150    -3.0550 hc         1 0ED       0.044200
     63 HG           1.9460    -2.6270    -3.4150 hc         1 0ED       0.060700
     64 HD11         0.7120    -5.2310    -4.4300 hc         1 0ED       0.025867
     65 HD12         2.3280    -4.6410    -4.8180 hc         1 0ED       0.025867
     66 HD13         1.9320    -5.1000    -3.1630 hc         1 0ED       0.025867
     67 HD21         0.2700    -1.5040    -4.9100 hc         1 0ED       0.025867
     68 HD22         1.3350    -2.5490    -5.8380 hc         1 0ED       0.025867
     69 HD23        -0.3000    -3.0830    -5.4420 hc         1 0ED       0.025867
     70 H2          -1.3090     0.0860    -0.8520 hn         1 0ED       0.403500
     71 HA3         -2.7440    -1.6040     1.1230 h1         1 0ED       0.062700
     72 HB22        -2.4100     1.4210     0.8900 hc         1 0ED       0.057700
     73 HB31        -3.2490     0.5990     2.1920 hc         1 0ED       0.057700
     74 HD1          0.0640     1.3350     0.7630 ha         1 0ED       0.122500
     75 HD2         -2.0390    -0.8450     3.7830 ha         1 0ED       0.122500
     76 HE1          2.2000     0.8440     1.9020 ha         1 0ED       0.109500
     77 HE21         0.0880    -1.3150     4.9310 ha         1 0ED       0.109500
     78 HZ           2.2210    -0.4760     3.9880 ha         1 0ED       0.106000
     79 H31         -8.6900     2.6890     1.1950 h1         1 0ED       0.044700
     80 H32         -8.9410     1.5080     2.4850 h1         1 0ED       0.044700
     81 H511        -8.3750     1.7860    -1.1540 h1         1 0ED       0.044700
     82 H52         -8.4540     0.0350    -1.3770 h1         1 0ED       0.044700
     83 H611       -10.7780    -0.0560    -0.7140 h1         1 0ED       0.045700
     84 H62        -10.5780     1.1400    -2.0060 h1         1 0ED       0.045700
     85 H1'1        -6.5290     1.3510     0.4200 h1         1 0ED       0.040700
     86 H1'2        -6.9370     0.5870     1.9550 h1         1 0ED       0.040700
     87 H2'1        -7.0980    -1.6250     0.8610 h1         1 0ED       0.055200
     88 H2'2        -6.6720    -0.9210    -0.6900 h1         1 0ED       0.055200
     89 HN21        -4.9180    -1.3960     1.5880 hn         1 0ED       0.308500
     90 H211       -11.0660     2.5750     1.7410 h1         1 0ED       0.045700
     91 H221       -11.0760     0.8130     1.5540 h1         1 0ED       0.045700
@<TRIPOS>BOND
     1     1     2 2   
     2     1     3 1   
     3     1    11 1   
     4     3     4 1   
     5     4     5 1   
     6     4    46 1   
     7     4    47 1   
     8     5     6 ar  
     9     5    10 ar  
    10     6     7 ar  
    11     6    48 1   
    12     7     8 ar  
    13     7    49 1   
    14     8     9 ar  
    15     8    50 1   
    16     9    10 ar  
    17     9    51 1   
    18    10    52 1   
    19    11    12 1   
    20    11    53 1   
    21    12    13 1   
    22    12    54 1   
    23    12    55 1   
    24    13    14 1   
    25    13    56 1   
    26    13    57 1   
    27    14    15 1   
    28    14    18 1   
    29    14    58 1   
    30    15    16 1   
    31    15    17 1   
    32    18    19 1   
    33    18    59 1   
    34    19    20 1   
    35    19    22 1   
    36    19    60 1   
    37    20    21 2   
    38    20    26 1   
    39    22    23 1   
    40    22    61 1   
    41    22    62 1   
    42    23    24 1   
    43    23    25 1   
    44    23    63 1   
    45    24    64 1   
    46    24    65 1   
    47    24    66 1   
    48    25    67 1   
    49    25    68 1   
    50    25    69 1   
    51    26    27 1   
    52    26    70 1   
    53    27    28 1   
    54    27    30 1   
    55    27    71 1   
    56    28    29 2   
    57    28    45 1   
    58    30    31 1   
    59    30    72 1   
    60    30    73 1   
    61    31    32 ar  
    62    31    33 ar  
    63    32    34 ar  
    64    32    74 1   
    65    33    35 ar  
    66    33    75 1   
    67    34    36 ar  
    68    34    76 1   
    69    35    36 ar  
    70    35    77 1   
    71    36    78 1   
    72    37    38 1   
    73    37    42 1   
    74    38    39 1   
    75    38    90 1   
    76    38    91 1   
    77    39    40 1   
    78    39    79 1   
    79    39    80 1   
    80    40    41 1   
    81    40    43 1   
    82    41    42 1   
    83    41    81 1   
    84    41    82 1   
    85    42    83 1   
    86    42    84 1   
    87    43    44 1   
    88    43    85 1   
    89    43    86 1   
    90    44    45 1   
    91    44    87 1   
    92    44    88 1   
    93    45    89 1   
@<TRIPOS>SUBSTRUCTURE
     1 0ED         1 TEMP              0 ****  ****    0 ROOT
