@<TRIPOS>MOLECULE
0EF
   63    64     1     0     0
SMALL
No Charge or Current Charge


@<TRIPOS>ATOM
      1 O1           6.2310    -0.6810     0.8310 o          1 0EF      -0.567000
      2 C            5.6190     0.2060     0.2590 c          1 0EF       0.650100
      3 O2           6.1340     1.3460    -0.2960 os         1 0EF      -0.477100
      4 CT           7.5450     1.6650    -0.2520 c3         1 0EF       0.225000
      5 C1           8.3480     0.5850    -1.0230 c3         1 0EF      -0.107100
      6 C2           7.6510     3.0220    -0.9840 c3         1 0EF      -0.107100
      7 C3           7.9990     1.8230     1.2220 c3         1 0EF      -0.107100
      8 N            4.2730     0.2040     0.0430 ns         1 0EF      -0.494900
      9 CA           3.3360    -0.8480     0.4860 c3         1 0EF       0.053700
     10 C4           2.0050    -0.7710    -0.3290 c          1 0EF       0.600100
     11 O            1.7030     0.2390    -0.9590 o          1 0EF      -0.621100
     12 CB           3.0850    -0.7410     2.0110 c3         1 0EF      -0.111100
     13 N1           1.1180    -1.8700    -0.2910 n          1 0EF      -0.383800
     14 CA1         -0.2250    -1.8200    -0.9390 c5         1 0EF       0.015700
     15 C5          -1.3040    -1.0740    -0.0900 c          1 0EF       0.610100
     16 O3          -1.2200    -0.7210     1.0810 o          1 0EF      -0.626100
     17 CB1         -0.5860    -3.3370    -1.0410 c5         1 0EF      -0.086400
     18 CG           0.1340    -3.9370     0.1920 c5         1 0EF      -0.090400
     19 CD           1.5120    -3.2370     0.1130 c5         1 0EF       0.106000
     20 N2          -2.3970    -0.8070    -0.8840 ns         1 0EF      -0.504900
     21 CA2         -3.6240    -0.1920    -0.4150 c3         1 0EF       0.284100
     22 CB2         -3.9060     1.1200    -1.1790 c3         1 0EF      -0.054100
     23 CG1         -5.1350     1.8590    -0.6610 ca         1 0EF      -0.041300
     24 CD1         -5.1050     2.4830     0.6030 ca         1 0EF      -0.098000
     25 CD2         -6.3090     1.9300    -1.4380 ca         1 0EF      -0.098000
     26 CE1         -6.2350     3.1670     1.0840 ca         1 0EF      -0.115000
     27 CE2         -7.4390     2.6140    -0.9560 ca         1 0EF      -0.115000
     28 CZ          -7.4030     3.2320     0.3050 ca         1 0EF      -0.126000
     29 NHO         -4.7350    -1.1230    -0.5160 ns         1 0EF      -0.561900
     30 C6          -5.2740    -1.8280     0.5160 c          1 0EF       0.729000
     31 O4          -4.8160    -1.7010     1.6350 o          1 0EF      -0.733500
     32 OXT         -6.2050    -2.5580     0.2380 o          1 0EF      -0.733500
     33 H11          7.8920     0.3840    -2.0000 hc         1 0EF       0.047033
     34 H12          9.3770     0.9250    -1.1940 hc         1 0EF       0.047033
     35 H13          8.4070    -0.3570    -0.4670 hc         1 0EF       0.047033
     36 H21          7.0520     3.7870    -0.4750 hc         1 0EF       0.047033
     37 H22          8.6910     3.3690    -1.0130 hc         1 0EF       0.047033
     38 H23          7.2920     2.9370    -2.0170 hc         1 0EF       0.047033
     39 H31          8.0620     0.8590     1.7370 hc         1 0EF       0.047033
     40 H32          8.9950     2.2790     1.2670 hc         1 0EF       0.047033
     41 H33          7.3060     2.4680     1.7760 hc         1 0EF       0.047033
     42 H            3.9060     0.9970    -0.4700 hn         1 0EF       0.347500
     43 HA           3.7930    -1.8220     0.2690 h1         1 0EF       0.078700
     44 HB1          2.6720     0.2430     2.2630 hc         1 0EF       0.051367
     45 HB2          2.3760    -1.5010     2.3570 hc         1 0EF       0.051367
     46 HB3          4.0190    -0.8740     2.5700 hc         1 0EF       0.051367
     47 HA1         -0.1800    -1.3540    -1.9330 h1         1 0EF       0.071700
     48 HB21        -1.6660    -3.5300    -1.0370 hc         1 0EF       0.075700
     49 HB31        -0.1900    -3.7670    -1.9690 hc         1 0EF       0.075700
     50 HG2         -0.3870    -3.6850     1.1230 hc         1 0EF       0.063700
     51 HG3          0.2170    -5.0290     0.1470 hc         1 0EF       0.063700
     52 HD2          2.1550    -3.6950    -0.6500 h1         1 0EF       0.038700
     53 HD3          2.0340    -3.2730     1.0770 h1         1 0EF       0.038700
     54 H1          -2.3620    -1.1280    -1.8430 hn         1 0EF       0.297500
     55 HA2         -3.4910     0.0600     0.6450 h2         1 0EF       0.097700
     56 HB22        -3.0290     1.7720    -1.0900 hc         1 0EF       0.043700
     57 HB32        -4.0130     0.8980    -2.2470 hc         1 0EF       0.043700
     58 HD1         -4.2050     2.4390     1.2120 ha         1 0EF       0.112000
     59 HD21        -6.3480     1.4530    -2.4150 ha         1 0EF       0.112000
     60 HE1         -6.2060     3.6450     2.0600 ha         1 0EF       0.098500
     61 HE2         -8.3420     2.6640    -1.5600 ha         1 0EF       0.098500
     62 HZ          -8.2770     3.7610     0.6770 ha         1 0EF       0.095000
     63 HN          -5.1680    -1.2560    -1.4170 hn         1 0EF       0.257500
@<TRIPOS>BOND
     1     1     2 2   
     2     2     3 1   
     3     2     8 1   
     4     3     4 1   
     5     4     5 1   
     6     4     6 1   
     7     4     7 1   
     8     5    33 1   
     9     5    34 1   
    10     5    35 1   
    11     6    36 1   
    12     6    37 1   
    13     6    38 1   
    14     7    39 1   
    15     7    40 1   
    16     7    41 1   
    17     8     9 1   
    18     8    42 1   
    19     9    10 1   
    20     9    12 1   
    21     9    43 1   
    22    10    11 2   
    23    10    13 1   
    24    12    44 1   
    25    12    45 1   
    26    12    46 1   
    27    13    14 1   
    28    13    19 1   
    29    14    15 1   
    30    14    17 1   
    31    14    47 1   
    32    15    16 2   
    33    15    20 1   
    34    17    18 1   
    35    17    48 1   
    36    17    49 1   
    37    18    19 1   
    38    18    50 1   
    39    18    51 1   
    40    19    52 1   
    41    19    53 1   
    42    20    21 1   
    43    20    54 1   
    44    21    22 1   
    45    21    29 1   
    46    21    55 1   
    47    22    23 1   
    48    22    56 1   
    49    22    57 1   
    50    23    24 ar  
    51    23    25 ar  
    52    24    26 ar  
    53    24    58 1   
    54    25    27 ar  
    55    25    59 1   
    56    26    28 ar  
    57    26    60 1   
    58    27    28 ar  
    59    27    61 1   
    60    28    62 1   
    61    29    30 1   
    62    29    63 1   
    63    30    31 1   
    64    30    32 1   
@<TRIPOS>SUBSTRUCTURE
     1 0EF         1 TEMP              0 ****  ****    0 ROOT
