@<TRIPOS>MOLECULE
0EF
   63    64     1     0     0
SMALL
bcc


@<TRIPOS>ATOM
      1 O1           5.8460    -0.4900     0.9670 o          1 0EF      -0.616000
      2 C            5.3090     0.3090     0.2250 c          1 0EF       0.766100
      3 O2           5.9290     1.2440    -0.4950 os         1 0EF      -0.453900
      4 CT           7.3720     1.3980    -0.5110 c3         1 0EF       0.201800
      5 C1           8.0530     0.1350    -1.0260 c3         1 0EF      -0.107100
      6 C2           7.5820     2.5350    -1.5050 c3         1 0EF      -0.107100
      7 C3           7.8890     1.8100     0.8620 c3         1 0EF      -0.107100
      8 N            3.9810     0.3630     0.0040 ns         1 0EF      -0.561900
      9 CA           3.0480    -0.4970     0.6860 c3         1 0EF       0.053700
     10 C4           1.8080    -0.6230    -0.1900 c          1 0EF       0.667100
     11 O            1.4520     0.3090    -0.9030 o          1 0EF      -0.621100
     12 CB           2.6360     0.0560     2.0540 c3         1 0EF      -0.111100
     13 N1           1.1160    -1.7650    -0.1160 n          1 0EF      -0.450800
     14 CA1         -0.1290    -1.8960    -0.8430 c5         1 0EF       0.015700
     15 C5          -1.2080    -1.0070    -0.2350 c          1 0EF       0.677100
     16 O3          -1.1940    -0.6970     0.9470 o          1 0EF      -0.626100
     17 CB1         -0.4980    -3.3750    -0.6560 c5         1 0EF      -0.086400
     18 CG           0.1190    -3.7270     0.6940 c5         1 0EF      -0.090400
     19 CD           1.4180    -2.9290     0.7140 c5         1 0EF       0.106000
     20 N2          -2.1830    -0.6680    -1.0870 ns         1 0EF      -0.571900
     21 CA2         -3.4970    -0.1910    -0.6570 c3         1 0EF       0.284100
     22 CB2         -3.5870     1.3310    -0.8130 c3         1 0EF      -0.054100
     23 CG1         -4.8670     1.8810    -0.2530 ca         1 0EF      -0.041300
     24 CD1         -5.0290     2.0160     1.1250 ca         1 0EF      -0.116000
     25 CD2         -5.9250     2.2430    -1.0830 ca         1 0EF      -0.116000
     26 CE1         -6.2170     2.4930     1.6610 ca         1 0EF      -0.133000
     27 CE2         -7.1150     2.7270    -0.5530 ca         1 0EF      -0.133000
     28 CZ          -7.2650     2.8510     0.8220 ca         1 0EF      -0.144000
     29 NHO         -4.5430    -0.8390    -1.3720 ns         1 0EF      -0.628900
     30 C6          -4.7800    -2.2250    -1.2320 c          1 0EF       1.006600
     31 O4          -4.2590    -2.7870    -0.2490 o          1 0EF      -0.838800
     32 OXT         -5.5140    -2.7360    -2.1030 o          1 0EF      -0.838800
     33 H11          7.6030    -0.1900    -1.9650 hc         1 0EF       0.047033
     34 H12          9.1050     0.3470    -1.2210 hc         1 0EF       0.047033
     35 H13          8.0070    -0.6850    -0.3130 hc         1 0EF       0.047033
     36 H21          7.0810     3.4470    -1.1770 hc         1 0EF       0.047033
     37 H22          8.6450     2.7540    -1.5980 hc         1 0EF       0.047033
     38 H23          7.2060     2.2710    -2.4940 hc         1 0EF       0.047033
     39 H31          7.8030     1.0120     1.5950 hc         1 0EF       0.047033
     40 H32          8.9430     2.0810     0.7840 hc         1 0EF       0.047033
     41 H33          7.3510     2.6850     1.2310 hc         1 0EF       0.047033
     42 H            3.5990     1.0990    -0.5710 hn         1 0EF       0.347500
     43 HA           3.5190    -1.4720     0.8180 h1         1 0EF       0.078700
     44 HB1          2.2100     1.0540     1.9470 hc         1 0EF       0.051367
     45 HB2          1.8920    -0.5780     2.5350 hc         1 0EF       0.051367
     46 HB3          3.5040     0.1160     2.7090 hc         1 0EF       0.051367
     47 HA1          0.0110    -1.6530    -1.8990 h1         1 0EF       0.071700
     48 HB21        -1.5760    -3.5340    -0.6950 hc         1 0EF       0.075700
     49 HB31        -0.0410    -3.9640    -1.4530 hc         1 0EF       0.075700
     50 HG2         -0.5320    -3.4060     1.5080 hc         1 0EF       0.063700
     51 HG3          0.2980    -4.7940     0.8130 hc         1 0EF       0.063700
     52 HD2          2.2420    -3.5020     0.2810 h1         1 0EF       0.038700
     53 HD3          1.7020    -2.6410     1.7250 h1         1 0EF       0.038700
     54 H1          -2.1150    -0.9820    -2.0430 hn         1 0EF       0.297500
     55 HA2         -3.5820    -0.4380     0.4010 h2         1 0EF       0.097700
     56 HB22        -2.7320     1.7690    -0.2940 hc         1 0EF       0.043700
     57 HB32        -3.4840     1.5970    -1.8690 hc         1 0EF       0.043700
     58 HD1         -4.2130     1.7440     1.7860 ha         1 0EF       0.130000
     59 HD21        -5.8170     2.1490    -2.1570 ha         1 0EF       0.130000
     60 HE1         -6.3230     2.5910     2.7340 ha         1 0EF       0.116500
     61 HE2         -7.9250     3.0060    -1.2150 ha         1 0EF       0.116500
     62 HZ          -8.1910     3.2290     1.2370 ha         1 0EF       0.113000
     63 HN          -4.7820    -0.4440    -2.2690 hn         1 0EF       0.257500
@<TRIPOS>BOND
     1     1     2 2   
     2     2     3 1   
     3     2     8 1   
     4     3     4 1   
     5     4     5 1   
     6     4     6 1   
     7     4     7 1   
     8     5    33 1   
     9     5    34 1   
    10     5    35 1   
    11     6    36 1   
    12     6    37 1   
    13     6    38 1   
    14     7    39 1   
    15     7    40 1   
    16     7    41 1   
    17     8     9 1   
    18     8    42 1   
    19     9    10 1   
    20     9    12 1   
    21     9    43 1   
    22    10    11 2   
    23    10    13 1   
    24    12    44 1   
    25    12    45 1   
    26    12    46 1   
    27    13    14 1   
    28    13    19 1   
    29    14    15 1   
    30    14    17 1   
    31    14    47 1   
    32    15    16 2   
    33    15    20 1   
    34    17    18 1   
    35    17    48 1   
    36    17    49 1   
    37    18    19 1   
    38    18    50 1   
    39    18    51 1   
    40    19    52 1   
    41    19    53 1   
    42    20    21 1   
    43    20    54 1   
    44    21    22 1   
    45    21    29 1   
    46    21    55 1   
    47    22    23 1   
    48    22    56 1   
    49    22    57 1   
    50    23    24 ar  
    51    23    25 ar  
    52    24    26 ar  
    53    24    58 1   
    54    25    27 ar  
    55    25    59 1   
    56    26    28 ar  
    57    26    60 1   
    58    27    28 ar  
    59    27    61 1   
    60    28    62 1   
    61    29    30 1   
    62    29    63 1   
    63    30    31 1   
    64    30    32 1   
@<TRIPOS>SUBSTRUCTURE
     1 0EF         1 TEMP              0 ****  ****    0 ROOT
