@<TRIPOS>MOLECULE
0EH
   33    32     1     0     0
SMALL
No Charge or Current Charge


@<TRIPOS>ATOM
      1 OAD         -4.0240    -1.2540     0.9110 o          1 0EH      -0.733500
      2 CAE         -3.5750    -0.7060    -0.0880 c          1 0EH       0.695000
      3 CAF         -2.4040     0.3790     0.0630 c3         1 0EH       0.030200
      4 CAA         -2.5030     1.0700     1.4560 c3         1 0EH      -0.056100
      5 CAB         -1.0530    -0.3960    -0.0850 c3         1 0EH      -0.046400
      6 NAC         -2.4560     1.4740    -0.9750 n8         1 0EH      -0.998200
      7 CAO          0.2530     0.4280     0.0920 c3         1 0EH      -0.071400
      8 CAP          1.5280    -0.4210    -0.1080 c3         1 0EH      -0.077400
      9 CAQ          2.8300     0.3900     0.0720 c3         1 0EH      -0.074400
     10 CAR          4.1050    -0.4600    -0.1270 c3         1 0EH      -0.076400
     11 CAS          5.4060     0.3510     0.0540 c3         1 0EH      -0.075400
     12 CAT          6.6780    -0.4960    -0.1450 c3         1 0EH      -0.087100
     13 H2          -2.3040     0.3570     2.2650 hc         1 0EH       0.017367
     14 H3          -1.7830     1.8920     1.5520 hc         1 0EH       0.017367
     15 H4          -3.5050     1.4880     1.6110 hc         1 0EH       0.017367
     16 H5          -1.0410    -1.2150     0.6460 hc         1 0EH       0.038200
     17 H6          -1.0320    -0.8760    -1.0720 hc         1 0EH       0.038200
     18 H7          -2.6510     1.0300    -1.8800 hn         1 0EH       0.382000
     19 H8          -3.3000     2.0350    -0.8150 hn         1 0EH       0.382000
     20 H10          0.2660     1.2590    -0.6230 hc         1 0EH       0.035700
     21 H11          0.2800     0.8650     1.0960 hc         1 0EH       0.035700
     22 H12          1.5220    -1.2540     0.6060 hc         1 0EH       0.031200
     23 H13          1.5150    -0.8610    -1.1130 hc         1 0EH       0.031200
     24 H14          2.8370     1.2230    -0.6420 hc         1 0EH       0.032200
     25 H15          2.8440     0.8290     1.0780 hc         1 0EH       0.032200
     26 H16          4.0970    -1.2930     0.5880 hc         1 0EH       0.034700
     27 H17          4.0910    -0.8990    -1.1320 hc         1 0EH       0.034700
     28 H18          5.4180     1.1840    -0.6600 hc         1 0EH       0.033700
     29 H19          5.4250     0.7910     1.0590 hc         1 0EH       0.033700
     30 H20          6.7130    -1.3180     0.5800 hc         1 0EH       0.026033
     31 H21          6.7070    -0.9210    -1.1550 hc         1 0EH       0.026033
     32 H22          7.5740     0.1220    -0.0070 hc         1 0EH       0.026033
     33 O1          -4.0670    -0.8720    -1.1990 o          1 0EH      -0.733500
@<TRIPOS>BOND
     1     1     2 1   
     2     2     3 1   
     3     2    33 1   
     4     3     4 1   
     5     3     5 1   
     6     3     6 1   
     7     4    13 1   
     8     4    14 1   
     9     4    15 1   
    10     5     7 1   
    11     5    16 1   
    12     5    17 1   
    13     6    18 1   
    14     6    19 1   
    15     7     8 1   
    16     7    20 1   
    17     7    21 1   
    18     8     9 1   
    19     8    22 1   
    20     8    23 1   
    21     9    10 1   
    22     9    24 1   
    23     9    25 1   
    24    10    11 1   
    25    10    26 1   
    26    10    27 1   
    27    11    12 1   
    28    11    28 1   
    29    11    29 1   
    30    12    30 1   
    31    12    31 1   
    32    12    32 1   
@<TRIPOS>SUBSTRUCTURE
     1 0EH         1 TEMP              0 ****  ****    0 ROOT
