@<TRIPOS>MOLECULE
0EH
   33    32     1     0     0
SMALL
abcg2


@<TRIPOS>ATOM
      1 OAD         -3.5610    -1.5410     0.8100 o          1 0EH      -0.733500
      2 CAE         -3.5010    -0.6630    -0.0770 c          1 0EH       0.695000
      3 CAF         -2.3500     0.3810     0.0590 c3         1 0EH       0.030200
      4 CAA         -2.4700     1.0540     1.4280 c3         1 0EH      -0.056100
      5 CAB         -1.0210    -0.3820    -0.0690 c3         1 0EH      -0.046400
      6 NAC         -2.3840     1.4260    -0.9610 n8         1 0EH      -0.998200
      7 CAO          0.2470     0.4450     0.0920 c3         1 0EH      -0.071400
      8 CAP          1.5070    -0.3910    -0.0970 c3         1 0EH      -0.077400
      9 CAQ          2.7950     0.4050     0.0680 c3         1 0EH      -0.074400
     10 CAR          4.0500    -0.4400    -0.1120 c3         1 0EH      -0.076400
     11 CAS          5.3430     0.3510     0.0470 c3         1 0EH      -0.075400
     12 CAT          6.5870    -0.5080    -0.1340 c3         1 0EH      -0.087100
     13 H2          -2.3560     0.3310     2.2340 hc         1 0EH       0.017367
     14 H3          -1.7150     1.8320     1.5550 hc         1 0EH       0.017367
     15 H4          -3.4470     1.5310     1.5430 hc         1 0EH       0.017367
     16 H5          -1.0170    -1.1930     0.6640 hc         1 0EH       0.038200
     17 H6          -0.9980    -0.8690    -1.0540 hc         1 0EH       0.038200
     18 H7          -2.4370     0.9790    -1.8690 hn         1 0EH       0.382000
     19 H8          -3.2640     1.9230    -0.8820 hn         1 0EH       0.382000
     20 H10          0.2440     1.2710    -0.6250 hc         1 0EH       0.035700
     21 H11          0.2730     0.9030     1.0860 hc         1 0EH       0.035700
     22 H12          1.5030    -1.2220     0.6180 hc         1 0EH       0.031200
     23 H13          1.4930    -0.8520    -1.0920 hc         1 0EH       0.031200
     24 H14          2.8060     1.2310    -0.6520 hc         1 0EH       0.032200
     25 H15          2.8100     0.8700     1.0600 hc         1 0EH       0.032200
     26 H16          4.0400    -1.2640     0.6110 hc         1 0EH       0.034700
     27 H17          4.0340    -0.9090    -1.1030 hc         1 0EH       0.034700
     28 H18          5.3570     1.1710    -0.6780 hc         1 0EH       0.033700
     29 H19          5.3610     0.8210     1.0350 hc         1 0EH       0.033700
     30 H20          6.6230    -1.3110     0.6040 hc         1 0EH       0.026033
     31 H21          6.6040    -0.9720    -1.1220 hc         1 0EH       0.026033
     32 H22          7.5010     0.0780    -0.0300 hc         1 0EH       0.026033
     33 O1          -4.2680    -0.5600    -1.0560 o          1 0EH      -0.733500
@<TRIPOS>BOND
     1     1     2 1   
     2     2     3 1   
     3     2    33 1   
     4     3     4 1   
     5     3     5 1   
     6     3     6 1   
     7     4    13 1   
     8     4    14 1   
     9     4    15 1   
    10     5     7 1   
    11     5    16 1   
    12     5    17 1   
    13     6    18 1   
    14     6    19 1   
    15     7     8 1   
    16     7    20 1   
    17     7    21 1   
    18     8     9 1   
    19     8    22 1   
    20     8    23 1   
    21     9    10 1   
    22     9    24 1   
    23     9    25 1   
    24    10    11 1   
    25    10    26 1   
    26    10    27 1   
    27    11    12 1   
    28    11    28 1   
    29    11    29 1   
    30    12    30 1   
    31    12    31 1   
    32    12    32 1   
@<TRIPOS>SUBSTRUCTURE
     1 0EH         1 TEMP              0 ****  ****    0 ROOT
