@<TRIPOS>MOLECULE
0EI
   84    89     1     0     0
SMALL
No Charge or Current Charge


@<TRIPOS>ATOM
      1 N1          -3.3470    29.0020    30.6910 ne         1 0EI      -0.130400
      2 C2          -2.8550    28.6200    27.0190 ca         1 0EI      -0.167000
      3 N3           2.8990    28.1490    29.8260 nu         1 0EI      -0.953900
      4 C4          -3.0810    28.3970    29.4360 ca         1 0EI       0.006400
      5 N4           5.4330    22.8280    34.0410 nc         1 0EI      -0.619000
      6 C5          -1.0420    28.9480    31.0830 ca         1 0EI       0.011400
      7 C6          -0.1990    29.9880    30.6530 ca         1 0EI      -0.051000
      8 C23          9.9770    24.6680    32.5650 ca         1 0EI       0.172000
      9 C22          9.0570    25.7130    32.7330 ca         1 0EI      -0.158000
     10 C21          7.6930    25.4220    32.9160 ca         1 0EI      -0.064500
     11 C24          9.5450    23.3340    32.5900 ca         1 0EI      -0.158000
     12 C25          8.1820    23.0420    32.7710 ca         1 0EI      -0.064500
     13 C20          7.2400    24.0840    32.9060 ca         1 0EI      -0.125500
     14 C19          5.8280    23.7720    33.1420 cc         1 0EI       0.312500
     15 C26          4.1240    22.9150    34.0080 cd         1 0EI       0.478800
     16 S            3.0710    21.8410    34.9380 ss         1 0EI      -0.330300
     17 C27          1.9680    23.0100    35.8540 c3         1 0EI       0.016900
     18 N5           3.6470    23.8230    33.0700 na         1 0EI      -0.131500
     19 C28          2.2520    23.9430    32.5970 c3         1 0EI       0.044900
     20 C18          4.7810    24.4380    32.5270 cd         1 0EI      -0.139000
     21 C17          4.8030    25.3830    31.3830 ca         1 0EI       0.053000
     22 C16          3.7740    26.3230    31.1970 ca         1 0EI      -0.214000
     23 C29          5.8360    25.3920    30.4260 ca         1 0EI      -0.187000
     24 C30          5.8030    26.3170    29.3700 ca         1 0EI       0.383900
     25 N6           4.8070    27.2140    29.2050 nb         1 0EI      -0.739000
     26 C15          3.8230    27.1850    30.0950 ca         1 0EI       0.616900
     27 C8           1.5980    28.3950    30.2520 ca         1 0EI       0.331000
     28 C7           1.1140    29.7100    30.2350 ca         1 0EI      -0.160000
     29 C9           0.7500    27.3510    30.6620 ca         1 0EI      -0.164000
     30 C10         -0.5670    27.6130    31.0880 ca         1 0EI      -0.019300
     31 N2          -2.3750    29.2650    31.4810 nf         1 0EI      -0.132400
     32 C11         -1.4600    26.4460    31.5270 c3         1 0EI      -0.030100
     33 C12         -2.6580    26.1380    30.5840 c3         1 0EI      -0.038100
     34 C13         -2.7430    27.0250    29.3360 ca         1 0EI      -0.039300
     35 C3          -3.1350    29.1840    28.2740 ca         1 0EI      -0.051000
     36 C14         -2.4630    26.4690    28.0700 ca         1 0EI      -0.124000
     37 C1          -2.5200    27.2610    26.9020 ca         1 0EI      -0.007000
     38 N           -2.2400    26.7640    25.6000 ns         1 0EI      -0.148000
     39 C           -1.9880    25.4850    25.1200 c          1 0EI       0.606100
     40 O           -2.0100    24.4700    25.8070 o          1 0EI      -0.586100
     41 C31         -1.7140    25.4210    23.6120 c3         1 0EI      -0.154400
     42 C32         -0.2180    25.1400    23.3140 c3         1 0EI      -0.064400
     43 C33          0.1290    25.1280    21.8050 c3         1 0EI       0.164800
     44 N7          -0.6330    24.1530    20.9820 n3         1 0EI      -0.721600
     45 C35         -0.4160    22.7390    21.3730 c3         1 0EI       0.149100
     46 C34         -0.4210    24.3620    19.5330 c3         1 0EI       0.149100
     47 H1          -2.8990    29.2490    26.1320 ha         1 0EI       0.114000
     48 H2           3.2760    28.8230    29.1670 hn         1 0EI       0.511000
     49 H3          -0.5640    31.0120    30.6380 ha         1 0EI       0.129000
     50 H4           9.4010    26.7440    32.7290 ha         1 0EI       0.131500
     51 H5           6.9880    26.2380    33.0640 ha         1 0EI       0.127000
     52 H6          10.2660    22.5290    32.4730 ha         1 0EI       0.131500
     53 H7           7.8530    22.0040    32.7970 ha         1 0EI       0.127000
     54 H8           1.3170    22.4440    36.5330 h1         1 0EI       0.066367
     55 H9           2.5770    23.7080    36.4430 h1         1 0EI       0.066367
     56 H10          1.3420    23.5780    35.1570 h1         1 0EI       0.066367
     57 H11          2.2400    24.1130    31.5140 h1         1 0EI       0.063700
     58 H12          1.6990    23.0190    32.8010 h1         1 0EI       0.063700
     59 H13          1.7580    24.7800    33.1060 h1         1 0EI       0.063700
     60 H14          2.9790    26.4250    31.9230 ha         1 0EI       0.135000
     61 H15          6.6530    24.6800    30.4650 ha         1 0EI       0.140000
     62 H16          6.5980    26.3330    28.6250 h4         1 0EI       0.024100
     63 H17          1.7560    30.5230    29.9070 ha         1 0EI       0.122000
     64 H18          1.1030    26.3260    30.6260 ha         1 0EI       0.118000
     65 H19         -1.8480    26.6470    32.5330 hc         1 0EI       0.052200
     66 H20         -0.8610    25.5330    31.6320 hc         1 0EI       0.052200
     67 H21         -3.5880    26.2320    31.1580 hc         1 0EI       0.062200
     68 H22         -2.6100    25.0810    30.2960 hc         1 0EI       0.062200
     69 H23         -3.3880    30.2400    28.3460 ha         1 0EI       0.127000
     70 H24         -2.1900    25.4200    28.0170 ha         1 0EI       0.148000
     71 H25         -2.2110    27.4830    24.8890 hn         1 0EI       0.152000
     72 H26         -1.9890    26.3710    23.1390 hc         1 0EI       0.069700
     73 H27         -2.3150    24.6090    23.1860 hc         1 0EI       0.069700
     74 H28          0.0790    24.1880    23.7710 hc         1 0EI       0.053700
     75 H29          0.3920    25.9130    23.7970 hc         1 0EI       0.053700
     76 H30          1.2060    24.9380    21.7000 h1         1 0EI       0.031700
     77 H31         -0.0500    26.1420    21.4210 h1         1 0EI       0.031700
     78 H33         -1.0040    22.0660    20.7340 h1         1 0EI       0.031700
     79 H34          0.6430    22.4640    21.2760 h1         1 0EI       0.031700
     80 H35         -0.7270    22.5590    22.4100 h1         1 0EI       0.031700
     81 H36         -0.6710    25.3930    19.2480 h1         1 0EI       0.031700
     82 H37          0.6260    24.1740    19.2590 h1         1 0EI       0.031700
     83 H38         -1.0570    23.6870    18.9440 h1         1 0EI       0.031700
     84 F           11.2870    24.9480    32.3930 f          1 0EI      -0.181000
@<TRIPOS>BOND
     1     1     4 1   
     2     1    31 2   
     3     2    35 ar  
     4     2    37 ar  
     5     2    47 1   
     6     3    26 1   
     7     3    27 1   
     8     3    48 1   
     9     4    34 ar  
    10     4    35 ar  
    11     5    14 1   
    12     5    15 2   
    13     6     7 ar  
    14     6    30 ar  
    15     6    31 1   
    16     7    28 ar  
    17     7    49 1   
    18     8     9 ar  
    19     8    11 ar  
    20     8    84 1   
    21     9    10 ar  
    22     9    50 1   
    23    10    13 ar  
    24    10    51 1   
    25    11    12 ar  
    26    11    52 1   
    27    12    13 ar  
    28    12    53 1   
    29    13    14 1   
    30    14    20 2   
    31    15    16 1   
    32    15    18 1   
    33    16    17 1   
    34    17    54 1   
    35    17    55 1   
    36    17    56 1   
    37    18    19 1   
    38    18    20 1   
    39    19    57 1   
    40    19    58 1   
    41    19    59 1   
    42    20    21 1   
    43    21    22 ar  
    44    21    23 ar  
    45    22    26 ar  
    46    22    60 1   
    47    23    24 ar  
    48    23    61 1   
    49    24    25 ar  
    50    24    62 1   
    51    25    26 ar  
    52    27    28 ar  
    53    27    29 ar  
    54    28    63 1   
    55    29    30 ar  
    56    29    64 1   
    57    30    32 1   
    58    32    33 1   
    59    32    65 1   
    60    32    66 1   
    61    33    34 1   
    62    33    67 1   
    63    33    68 1   
    64    34    36 ar  
    65    35    69 1   
    66    36    37 ar  
    67    36    70 1   
    68    37    38 1   
    69    38    39 1   
    70    38    71 1   
    71    39    40 2   
    72    39    41 1   
    73    41    42 1   
    74    41    72 1   
    75    41    73 1   
    76    42    43 1   
    77    42    74 1   
    78    42    75 1   
    79    43    44 1   
    80    43    76 1   
    81    43    77 1   
    82    44    45 1   
    83    44    46 1   
    84    45    78 1   
    85    45    79 1   
    86    45    80 1   
    87    46    81 1   
    88    46    82 1   
    89    46    83 1   
@<TRIPOS>SUBSTRUCTURE
     1 0EI         1 TEMP              0 ****  ****    0 ROOT
