@<TRIPOS>MOLECULE
0EI
   84    89     1     0     0
SMALL
bcc


@<TRIPOS>ATOM
      1 N1          -2.7580    29.1240    30.6800 ne         1 0EI      -0.130400
      2 C2          -2.7320    28.6830    27.0190 ca         1 0EI      -0.185000
      3 N3           3.5810    28.6020    30.0090 nu         1 0EI      -0.760300
      4 C4          -2.5960    28.5100    29.4060 ca         1 0EI       0.006400
      5 N4           5.1810    22.7680    33.6270 nc         1 0EI      -0.619000
      6 C5          -0.4620    28.9610    31.0350 ca         1 0EI       0.011400
      7 C6           0.3660    30.0770    30.9340 ca         1 0EI      -0.069000
      8 C23          9.3720    25.3420    34.8180 ca         1 0EI       0.136900
      9 C22          8.4590    26.2470    34.3140 ca         1 0EI      -0.176000
     10 C21          7.2850    25.7660    33.7550 ca         1 0EI      -0.082500
     11 C24          9.1480    23.9790    34.7810 ca         1 0EI      -0.176000
     12 C25          7.9700    23.5150    34.2160 ca         1 0EI      -0.082500
     13 C20          7.0250    24.3970    33.6900 ca         1 0EI      -0.125500
     14 C19          5.7800    23.8780    33.1190 cc         1 0EI       0.377800
     15 C26          4.0870    22.5910    32.9290 cd         1 0EI       0.478800
     16 S            2.9790    21.2600    33.1450 ss         1 0EI      -0.282400
     17 C27          1.5510    22.1060    33.8830 c3         1 0EI      -0.031000
     18 N5           3.9440    23.5460    31.9740 na         1 0EI      -0.152900
     19 C28          2.8920    23.6160    30.9840 c3         1 0EI       0.015600
     20 C18          5.0220    24.3840    32.0840 cd         1 0EI      -0.153600
     21 C17          5.2310    25.5360    31.2050 ca         1 0EI       0.053000
     22 C16          4.2570    26.5140    31.0870 ca         1 0EI      -0.297300
     23 C29          6.4150    25.6700    30.4800 ca         1 0EI      -0.270300
     24 C30          6.5560    26.7910    29.6850 ca         1 0EI       0.449200
     25 N6           5.6210    27.7200    29.5400 nb         1 0EI      -0.739000
     26 C15          4.4800    27.5860    30.2130 ca         1 0EI       0.682200
     27 C8           2.2440    28.6920    30.3730 ca         1 0EI       0.192600
     28 C7           1.6980    29.9560    30.6010 ca         1 0EI      -0.178000
     29 C9           1.4090    27.5830    30.4810 ca         1 0EI      -0.182000
     30 C10          0.0650    27.6830    30.8360 ca         1 0EI      -0.019300
     31 N2          -1.7990    29.2770    31.4370 nf         1 0EI      -0.132400
     32 C11         -0.6840    26.3920    31.0430 c3         1 0EI      -0.030100
     33 C12         -2.1370    26.3360    30.5490 c3         1 0EI      -0.038100
     34 C13         -2.3450    27.1450    29.3050 ca         1 0EI      -0.039300
     35 C3          -2.8290    29.2680    28.2660 ca         1 0EI      -0.069000
     36 C14         -2.2750    26.5570    28.0470 ca         1 0EI      -0.142000
     37 C1          -2.4460    27.3200    26.8920 ca         1 0EI       0.085600
     38 N           -2.3770    26.8060    25.5950 ns         1 0EI      -0.474100
     39 C           -1.9030    25.6020    25.1740 c          1 0EI       0.673100
     40 O           -1.4820    24.7440    25.9300 o          1 0EI      -0.586100
     41 C31         -1.9460    25.3980    23.6770 c3         1 0EI      -0.154400
     42 C32         -0.6210    24.8750    23.1310 c3         1 0EI      -0.064400
     43 C33         -0.6620    24.6580    21.6250 c3         1 0EI       0.164800
     44 N7          -1.7110    23.7550    21.1900 n3         1 0EI      -0.721600
     45 C35         -1.4950    22.3980    21.6410 c3         1 0EI       0.149100
     46 C34         -1.8750    23.8020    19.7540 c3         1 0EI       0.149100
     47 H1          -2.8850    29.2880    26.1330 ha         1 0EI       0.132000
     48 H2           3.9770    29.4100    29.5520 hn         1 0EI       0.455800
     49 H3          -0.0490    31.0590    31.1260 ha         1 0EI       0.147000
     50 H4           8.6500    27.3110    34.3700 ha         1 0EI       0.149500
     51 H5           6.5570    26.4770    33.3880 ha         1 0EI       0.145000
     52 H6           9.8790    23.2900    35.1830 ha         1 0EI       0.149500
     53 H7           7.7870    22.4490    34.1800 ha         1 0EI       0.145000
     54 H8           0.8170    21.3330    34.1040 h1         1 0EI       0.066367
     55 H9           1.8350    22.6020    34.8080 h1         1 0EI       0.066367
     56 H10          1.1090    22.8210    33.1930 h1         1 0EI       0.066367
     57 H11          3.3000    23.9470    30.0320 h1         1 0EI       0.063700
     58 H12          2.4660    22.6240    30.8560 h1         1 0EI       0.063700
     59 H13          2.1030    24.3020    31.2900 h1         1 0EI       0.063700
     60 H14          3.3630    26.4610    31.6910 ha         1 0EI       0.153000
     61 H15          7.1980    24.9270    30.5360 ha         1 0EI       0.158000
     62 H16          7.4700    26.9450    29.1210 h4         1 0EI       0.024100
     63 H17          2.3190    30.8400    30.5240 ha         1 0EI       0.140000
     64 H18          1.7930    26.5970    30.2580 ha         1 0EI       0.136000
     65 H19         -0.6650    26.1410    32.1080 hc         1 0EI       0.052200
     66 H20         -0.1170    25.6040    30.5440 hc         1 0EI       0.052200
     67 H21         -2.8140    26.6730    31.3350 hc         1 0EI       0.062200
     68 H22         -2.3910    25.2930    30.3590 hc         1 0EI       0.062200
     69 H23         -3.0680    30.3200    28.3530 ha         1 0EI       0.145000
     70 H24         -2.0860    25.4980    27.9830 ha         1 0EI       0.166000
     71 H25         -2.6570    27.4490    24.8700 hn         1 0EI       0.318500
     72 H26         -2.2220    26.3170    23.1550 hc         1 0EI       0.069700
     73 H27         -2.7400    24.6760    23.4650 hc         1 0EI       0.069700
     74 H28         -0.3390    23.9570    23.6500 hc         1 0EI       0.053700
     75 H29          0.1740    25.5960    23.3390 hc         1 0EI       0.053700
     76 H30          0.3320    24.3140    21.2890 h1         1 0EI       0.031700
     77 H31         -0.8330    25.6240    21.1410 h1         1 0EI       0.031700
     78 H33         -2.3030    21.7580    21.2840 h1         1 0EI       0.031700
     79 H34         -0.5450    21.9690    21.2820 h1         1 0EI       0.031700
     80 H35         -1.4940    22.3400    22.7290 h1         1 0EI       0.031700
     81 H36         -2.0990    24.8210    19.4350 h1         1 0EI       0.031700
     82 H37         -0.9840    23.4660    19.2010 h1         1 0EI       0.031700
     83 H38         -2.7100    23.1670    19.4510 h1         1 0EI       0.031700
     84 F           10.5080    25.8000    35.3670 f          1 0EI      -0.145900
@<TRIPOS>BOND
     1     1     4 1   
     2     1    31 2   
     3     2    35 ar  
     4     2    37 ar  
     5     2    47 1   
     6     3    26 1   
     7     3    27 1   
     8     3    48 1   
     9     4    34 ar  
    10     4    35 ar  
    11     5    14 1   
    12     5    15 2   
    13     6     7 ar  
    14     6    30 ar  
    15     6    31 1   
    16     7    28 ar  
    17     7    49 1   
    18     8     9 ar  
    19     8    11 ar  
    20     8    84 1   
    21     9    10 ar  
    22     9    50 1   
    23    10    13 ar  
    24    10    51 1   
    25    11    12 ar  
    26    11    52 1   
    27    12    13 ar  
    28    12    53 1   
    29    13    14 1   
    30    14    20 2   
    31    15    16 1   
    32    15    18 1   
    33    16    17 1   
    34    17    54 1   
    35    17    55 1   
    36    17    56 1   
    37    18    19 1   
    38    18    20 1   
    39    19    57 1   
    40    19    58 1   
    41    19    59 1   
    42    20    21 1   
    43    21    22 ar  
    44    21    23 ar  
    45    22    26 ar  
    46    22    60 1   
    47    23    24 ar  
    48    23    61 1   
    49    24    25 ar  
    50    24    62 1   
    51    25    26 ar  
    52    27    28 ar  
    53    27    29 ar  
    54    28    63 1   
    55    29    30 ar  
    56    29    64 1   
    57    30    32 1   
    58    32    33 1   
    59    32    65 1   
    60    32    66 1   
    61    33    34 1   
    62    33    67 1   
    63    33    68 1   
    64    34    36 ar  
    65    35    69 1   
    66    36    37 ar  
    67    36    70 1   
    68    37    38 1   
    69    38    39 1   
    70    38    71 1   
    71    39    40 2   
    72    39    41 1   
    73    41    42 1   
    74    41    72 1   
    75    41    73 1   
    76    42    43 1   
    77    42    74 1   
    78    42    75 1   
    79    43    44 1   
    80    43    76 1   
    81    43    77 1   
    82    44    45 1   
    83    44    46 1   
    84    45    78 1   
    85    45    79 1   
    86    45    80 1   
    87    46    81 1   
    88    46    82 1   
    89    46    83 1   
@<TRIPOS>SUBSTRUCTURE
     1 0EI         1 TEMP              0 ****  ****    0 ROOT
