@<TRIPOS>MOLECULE
0EJ
   47    47     1     0     0
SMALL
bcc


@<TRIPOS>ATOM
      1 C1           1.0150     1.4700     0.6820 c6         1 0EJ       0.212600
      2 C2           2.0590     0.4330     0.2480 c6         1 0EJ       0.175100
      3 C3           1.5980    -0.9630     0.6830 c6         1 0EJ       0.212600
      4 C4           0.2650    -1.3090     0.0140 c6         1 0EJ       0.197600
      5 C5          -0.7600    -0.2380     0.3730 c6         1 0EJ       0.110100
      6 C6          -0.3220     1.1750    -0.0060 c6         1 0EJ       0.197600
      7 O11          1.4040     2.7760     0.4050 os         1 0EJ      -0.529200
      8 O12          2.2120     0.4370    -1.1470 os         1 0EJ      -0.559200
      9 O13          2.5290    -1.9550     0.3790 os         1 0EJ      -0.529200
     10 O14         -0.1810    -2.5620     0.4350 os         1 0EJ      -0.584200
     11 O15         -1.9670    -0.5420    -0.3170 os         1 0EJ      -0.381900
     12 O16         -1.3090     2.0860     0.3590 os         1 0EJ      -0.584200
     13 O21          2.4110     5.0130     0.8630 o          1 0EJ      -0.996000
     14 O22          3.5200     2.4070    -2.1940 o          1 0EJ      -0.991833
     15 O23          4.2930    -3.6510     0.8150 o          1 0EJ      -0.996000
     16 O24         -0.1710    -5.0360     0.1630 o          1 0EJ      -0.981833
     17 O25         -3.2800    -0.5420     1.4970 o          1 0EJ      -0.699000
     18 O26         -2.5710     4.1990    -0.1040 o          1 0EJ      -0.981833
     19 O31          1.0470     3.8740     2.7150 o          1 0EJ      -0.996000
     20 O32          4.7860     0.4830    -1.0710 o          1 0EJ      -0.991833
     21 O33          4.3340    -1.4620     2.1690 o          1 0EJ      -0.996000
     22 O34         -2.1150    -3.7230    -0.8250 o          1 0EJ      -0.981833
     23 O36         -1.3630     3.0320    -2.0500 o          1 0EJ      -0.981833
     24 O41          3.3370     2.9670     2.0960 o          1 0EJ      -0.996000
     25 O42          3.4820     0.0840    -3.2420 o          1 0EJ      -0.991833
     26 O43          2.5360    -3.1950     2.6340 o          1 0EJ      -0.996000
     27 O44          0.1890    -3.5660    -1.9190 o          1 0EJ      -0.981833
     28 O45         -6.5940    -2.0210    -1.3250 o          1 0EJ      -1.010500
     29 O46         -3.4630     2.0020    -1.0340 o          1 0EJ      -0.981833
     30 O55         -6.4560    -0.2330     0.5000 o          1 0EJ      -1.010500
     31 O65         -5.7480    -2.6530     1.0090 o          1 0EJ      -1.010500
     32 PA1          2.0940     3.7140     1.6080 p5         1 0EJ       1.333900
     33 PA2          3.6110     0.9030    -1.9500 p5         1 0EJ       1.346900
     34 PA3          3.4920    -2.6020     1.5950 p5         1 0EJ       1.333900
     35 PA4         -0.5990    -3.8010    -0.6300 p5         1 0EJ       1.328900
     36 CA5         -3.1230    -0.7220     0.3090 c          1 0EJ       0.776100
     37 PA6         -2.2320     2.8820    -0.8030 p5         1 0EJ       1.328900
     38 CB5         -4.1700    -1.1680    -0.6620 c3         1 0EJ      -0.348600
     39 PB5         -5.8810    -1.5450    -0.0430 p5         1 0EJ       1.220700
     40 H1           0.8600     1.3280     1.7660 h1         1 0EJ      -0.035300
     41 H2           3.0020     0.6550     0.7500 h1         1 0EJ       0.059700
     42 H3           1.4110    -0.9280     1.7690 h1         1 0EJ      -0.035300
     43 H4           0.4240    -1.3020    -1.0720 h1         1 0EJ       0.073200
     44 H5          -0.9320    -0.2750     1.4540 h1         1 0EJ       0.012700
     45 H6          -0.1610     1.2270    -1.0900 h1         1 0EJ       0.073200
     46 HB5         -4.2210    -0.3930    -1.4320 hc         1 0EJ       0.081700
     47 HB5A        -3.7500    -2.0650    -1.1260 hc         1 0EJ       0.081700
@<TRIPOS>BOND
     1     1     2 1   
     2     1     6 1   
     3     1     7 1   
     4     1    40 1   
     5     2     3 1   
     6     2     8 1   
     7     2    41 1   
     8     3     4 1   
     9     3     9 1   
    10     3    42 1   
    11     4     5 1   
    12     4    10 1   
    13     4    43 1   
    14     5     6 1   
    15     5    11 1   
    16     5    44 1   
    17     6    12 1   
    18     6    45 1   
    19     7    32 1   
    20     8    33 1   
    21     9    34 1   
    22    10    35 1   
    23    11    36 1   
    24    12    37 1   
    25    13    32 1   
    26    14    33 1   
    27    15    34 1   
    28    16    35 1   
    29    17    36 2   
    30    18    37 1   
    31    19    32 1   
    32    20    33 1   
    33    21    34 1   
    34    22    35 1   
    35    23    37 1   
    36    24    32 1   
    37    25    33 1   
    38    26    34 1   
    39    27    35 1   
    40    28    39 1   
    41    29    37 1   
    42    30    39 1   
    43    31    39 1   
    44    36    38 1   
    45    38    39 1   
    46    38    46 1   
    47    38    47 1   
@<TRIPOS>SUBSTRUCTURE
     1 0EJ         1 TEMP              0 ****  ****    0 ROOT
