@<TRIPOS>MOLECULE
0EJ
   47    47     1     0     0
SMALL
No Charge or Current Charge


@<TRIPOS>ATOM
      1 C1           0.9630     1.4310     0.5450 c6         1 0EJ       0.235800
      2 C2           2.0430     0.3780     0.1080 c6         1 0EJ       0.198300
      3 C3           1.5590    -1.0250     0.6210 c6         1 0EJ       0.235800
      4 C4           0.1980    -1.4150    -0.0780 c6         1 0EJ       0.220800
      5 C5          -0.8890    -0.3330     0.2770 c6         1 0EJ       0.133300
      6 C6          -0.4140     1.1120    -0.1560 c6         1 0EJ       0.220800
      7 O11          1.4080     2.8030     0.3810 os         1 0EJ      -0.552400
      8 O12          2.2180     0.3740    -1.3420 os         1 0EJ      -0.582400
      9 O13          2.5840    -2.0490     0.5370 os         1 0EJ      -0.552400
     10 O14         -0.2550    -2.7480     0.3010 os         1 0EJ      -0.607400
     11 O15         -2.1880    -0.6810    -0.2790 os         1 0EJ      -0.405100
     12 O16         -1.4260     2.1220     0.1270 os         1 0EJ      -0.607400
     13 O21          2.4110     4.9760     1.2300 o          1 0EJ      -0.996000
     14 O22          4.1060     2.0690    -1.7320 o          1 0EJ      -0.991833
     15 O23          4.4530    -3.4680     1.5080 o          1 0EJ      -0.996000
     16 O24         -0.8840    -5.1480    -0.1850 o          1 0EJ      -0.981833
     17 O25         -3.3980     0.1730     1.4800 o          1 0EJ      -0.650000
     18 O26         -3.1180     3.8810    -0.5340 o          1 0EJ      -0.981833
     19 O31          0.9580     3.7510     2.7150 o          1 0EJ      -0.996000
     20 O32          4.6770    -0.2920    -1.6560 o          1 0EJ      -0.991833
     21 O33          4.1760    -1.2260     2.3660 o          1 0EJ      -0.996000
     22 O34         -1.3730    -3.4880    -1.8770 o          1 0EJ      -0.981833
     23 O36         -1.0390     3.8100    -1.7610 o          1 0EJ      -0.981833
     24 O41          3.1800     2.9140     2.2260 o          1 0EJ      -0.996000
     25 O42          3.4490     0.6010    -3.5280 o          1 0EJ      -0.991833
     26 O43          2.5720    -2.9540     2.9300 o          1 0EJ      -0.996000
     27 O44          0.9120    -4.1800    -1.4770 o          1 0EJ      -0.981833
     28 O45         -6.4000    -2.5100    -0.6430 o          1 0EJ      -1.010500
     29 O46         -2.6970     2.0780    -2.0900 o          1 0EJ      -0.981833
     30 O55         -6.4830    -1.1020     1.3280 o          1 0EJ      -1.010500
     31 O65         -4.7530    -2.8180     1.1210 o          1 0EJ      -1.010500
     32 PA1          1.9940     3.6090     1.6540 p5         1 0EJ       1.333900
     33 PA2          3.6350     0.6940    -2.0520 p5         1 0EJ       1.346900
     34 PA3          3.4500    -2.4190     1.8510 p5         1 0EJ       1.333900
     35 PA4         -0.3970    -3.8960    -0.8300 p5         1 0EJ       1.328900
     36 CA5         -3.3500    -0.4430     0.4200 c          1 0EJ       0.727100
     37 PA6         -2.0700     2.9770    -1.0850 p5         1 0EJ       1.328900
     38 CB5         -4.5480    -0.6340    -0.4570 c3         1 0EJ      -0.506400
     39 PB5         -5.5760    -1.8190     0.3890 p5         1 0EJ       1.378500
     40 H1           0.7980     1.2740     1.6220 h1         1 0EJ      -0.035300
     41 H2           2.9980     0.6240     0.5920 h1         1 0EJ       0.059700
     42 H3           1.3220    -0.8960     1.6880 h1         1 0EJ      -0.035300
     43 H4           0.3550    -1.3910    -1.1670 h1         1 0EJ       0.073200
     44 H5          -0.9760    -0.3430     1.3730 h1         1 0EJ       0.012700
     45 H6          -0.2390     1.0890    -1.2420 h1         1 0EJ       0.073200
     46 HB5         -5.1230     0.2890    -0.5430 hc         1 0EJ       0.081700
     47 HB5A        -4.2810    -1.0530    -1.4290 hc         1 0EJ       0.081700
@<TRIPOS>BOND
     1     1     2 1   
     2     1     6 1   
     3     1     7 1   
     4     1    40 1   
     5     2     3 1   
     6     2     8 1   
     7     2    41 1   
     8     3     4 1   
     9     3     9 1   
    10     3    42 1   
    11     4     5 1   
    12     4    10 1   
    13     4    43 1   
    14     5     6 1   
    15     5    11 1   
    16     5    44 1   
    17     6    12 1   
    18     6    45 1   
    19     7    32 1   
    20     8    33 1   
    21     9    34 1   
    22    10    35 1   
    23    11    36 1   
    24    12    37 1   
    25    13    32 1   
    26    14    33 1   
    27    15    34 1   
    28    16    35 1   
    29    17    36 2   
    30    18    37 1   
    31    19    32 1   
    32    20    33 1   
    33    21    34 1   
    34    22    35 1   
    35    23    37 1   
    36    24    32 1   
    37    25    33 1   
    38    26    34 1   
    39    27    35 1   
    40    28    39 1   
    41    29    37 1   
    42    30    39 1   
    43    31    39 1   
    44    36    38 1   
    45    38    39 1   
    46    38    46 1   
    47    38    47 1   
@<TRIPOS>SUBSTRUCTURE
     1 0EJ         1 TEMP              0 ****  ****    0 ROOT
