@<TRIPOS>MOLECULE
0EK
  144   147     1     0     0
SMALL
No Charge or Current Charge


@<TRIPOS>ATOM
      1 O1           8.1030    -2.9960     1.1470 o          1 0EK      -0.519000
      2 C            8.5410    -1.9950     0.6060 c          1 0EK       0.639100
      3 O2           9.8400    -1.7380     0.2620 os         1 0EK      -0.501100
      4 CT          10.9240    -2.6310     0.6090 c3         1 0EK       0.221000
      5 C1          10.7230    -3.9990    -0.0930 c3         1 0EK      -0.111433
      6 C2          12.1850    -1.9340     0.0540 c3         1 0EK      -0.111433
      7 C3          11.0200    -2.7490     2.1530 c3         1 0EK      -0.111433
      8 N            7.7880    -0.9250     0.2210 ns         1 0EK      -0.522900
      9 CA           6.3480    -0.7460     0.5210 c3         1 0EK       0.048700
     10 C4           5.6270    -0.0350    -0.6600 c          1 0EK       0.584100
     11 O            6.2230     0.5680    -1.5450 o          1 0EK      -0.608100
     12 CB           6.1490     0.0320     1.8500 c3         1 0EK      -0.038100
     13 CG           6.8490    -0.6140     3.0430 ca         1 0EK      -0.103300
     14 CD1          8.1090    -0.1480     3.4690 ca         1 0EK      -0.100000
     15 CD2          6.2470    -1.6940     3.7190 ca         1 0EK      -0.100000
     16 CE1          8.7610    -0.7570     4.5550 ca         1 0EK      -0.104000
     17 CE2          6.8990    -2.3020     4.8060 ca         1 0EK      -0.104000
     18 CZ           8.1570    -1.8350     5.2230 ca         1 0EK      -0.095000
     19 N1           4.2490    -0.1240    -0.6410 ns         1 0EK      -0.504900
     20 CA1          3.3420     0.4390    -1.6720 c3         1 0EK       0.021700
     21 C5           2.0720     1.0330    -1.0030 c          1 0EK       0.588100
     22 O3           1.7520     0.7840     0.1520 o          1 0EK      -0.571100
     23 CB1          2.9700    -0.6330    -2.7300 c3         1 0EK      -0.040100
     24 CG1          4.1630    -1.2320    -3.4290 cc         1 0EK      -0.110300
     25 ND1          4.6900    -2.4980    -3.1430 na         1 0EK      -0.110700
     26 CD21         4.9310    -0.6770    -4.4350 cd         1 0EK      -0.143000
     27 CE11         5.7880    -2.7210    -3.9570 cc         1 0EK      -0.041300
     28 NE2          5.9120    -1.5980    -4.7340 na         1 0EK      -0.062000
     29 N2           1.3190     1.8690    -1.8060 ns         1 0EK      -0.502900
     30 CA2          0.0930     2.5660    -1.3790 c3         1 0EK       0.079700
     31 CB2          0.0810     4.0020    -1.9760 c3         1 0EK      -0.079400
     32 CG2         -1.1160     4.9260    -1.5710 c6         1 0EK      -0.054700
     33 CD11        -1.0020     6.3150    -2.2580 c6         1 0EK      -0.079900
     34 CD22        -1.2490     5.1000    -0.0280 c6         1 0EK      -0.079900
     35 CE12        -2.2020     7.2260    -1.8960 c6         1 0EK      -0.065400
     36 CE21        -2.4380     6.0200     0.3420 c6         1 0EK      -0.065400
     37 CZ1         -2.3340     7.3940    -0.3630 c6         1 0EK      -0.085400
     38 CH          -1.1920     1.7430    -1.7040 c3         1 0EK       0.121300
     39 OH          -1.2430     1.4250    -3.1100 oh         1 0EK      -0.656000
     40 CM          -1.3250     0.4530    -0.8490 c3         1 0EK       0.093000
     41 N11         -2.7060    -0.0900    -0.8520 n          1 0EK      -0.428800
     42 CB21        -3.0100    -1.1700    -1.8270 c3         1 0EK       0.110000
     43 CG21        -2.6150    -2.5890    -1.3390 c3         1 0EK      -0.078700
     44 CD3         -3.3690    -3.0150    -0.0570 c3         1 0EK      -0.095600
     45 CD4         -2.8010    -3.6320    -2.4630 c3         1 0EK      -0.095600
     46 C6          -3.6650     0.4600     0.0220 c          1 0EK       0.657100
     47 O4          -3.3800     1.3340     0.8260 o          1 0EK      -0.676100
     48 N3          -4.9450    -0.0170    -0.0970 ns         1 0EK      -0.509900
     49 CA3         -6.1220     0.4900     0.6410 c3         1 0EK       0.033700
     50 C7          -7.0960    -0.6860     0.9420 c          1 0EK       0.592100
     51 O5          -7.0760    -1.7430     0.3190 o          1 0EK      -0.635100
     52 CB3         -6.8420     1.6210    -0.1480 c3         1 0EK      -0.092400
     53 CG3         -5.9790     2.8790    -0.4220 c3         1 0EK      -0.068400
     54 CD          -6.7540     4.0010    -1.1460 c3         1 0EK      -0.106400
     55 CE          -5.8850     5.2420    -1.4070 c3         1 0EK       0.094600
     56 NZ          -6.6700     6.3030    -2.1300 nz         1 0EK      -0.973000
     57 N4          -7.9910    -0.4490     1.9680 ns         1 0EK      -0.423900
     58 CA4         -8.9250    -1.4510     2.5370 c3         1 0EK      -0.048300
     59 C8         -10.3060    -0.8000     2.8360 c          1 0EK       0.718000
     60 O6         -10.3320     0.2470     3.4690 o          1 0EK      -0.717000
     61 CB4         -8.3340    -2.1290     3.7990 c3         1 0EK      -0.038100
     62 CG4         -6.9680    -2.7660     3.5630 ca         1 0EK      -0.054300
     63 CD12        -5.7900    -2.0760     3.9140 ca         1 0EK      -0.111500
     64 CD23        -6.8720    -4.0470     2.9850 ca         1 0EK      -0.111500
     65 CE13        -4.5310    -2.6620     3.6910 ca         1 0EK      -0.115000
     66 CE22        -5.6130    -4.6340     2.7650 ca         1 0EK      -0.115000
     67 CZ2         -4.4430    -3.9420     3.1200 ca         1 0EK      -0.131000
     68 OXT        -11.3040    -1.3190     2.3540 o          1 0EK      -0.717000
     69 H11         10.4760    -3.8600    -1.1520 hc         1 0EK       0.054589
     70 H12         11.6410    -4.5950    -0.0360 hc         1 0EK       0.054589
     71 H13          9.9270    -4.5880     0.3740 hc         1 0EK       0.054589
     72 H21         12.3150    -0.9440     0.5080 hc         1 0EK       0.054589
     73 H22         13.0840    -2.5260     0.2670 hc         1 0EK       0.054589
     74 H23         12.1130    -1.8050    -1.0320 hc         1 0EK       0.054589
     75 H31         10.1960    -3.3340     2.5730 hc         1 0EK       0.054589
     76 H32         11.9530    -3.2480     2.4410 hc         1 0EK       0.054589
     77 H33         11.0100    -1.7560     2.6190 hc         1 0EK       0.054589
     78 H            8.2830    -0.1850    -0.2590 hn         1 0EK       0.325500
     79 HA           5.8860    -1.7360     0.6210 h1         1 0EK       0.101700
     80 HB2          6.5100     1.0590     1.7160 hc         1 0EK       0.069200
     81 HB3          5.0760     0.1210     2.0610 hc         1 0EK       0.069200
     82 HD1          8.5880     0.6810     2.9520 ha         1 0EK       0.108500
     83 HD2          5.2770    -2.0660     3.3980 ha         1 0EK       0.108500
     84 HE1          9.7350    -0.3950     4.8760 ha         1 0EK       0.120500
     85 HE2          6.4310    -3.1370     5.3220 ha         1 0EK       0.120500
     86 HZ           8.6620    -2.3070     6.0630 ha         1 0EK       0.123000
     87 H1           3.8290    -0.5970     0.1540 hn         1 0EK       0.354500
     88 HA1          3.8500     1.2720    -2.1770 h1         1 0EK       0.095700
     89 HB21         2.3830    -1.4240    -2.2460 hc         1 0EK       0.091200
     90 HB31         2.3080    -0.1860    -3.4820 hc         1 0EK       0.091200
     91 HD11         4.3270    -3.1520    -2.4530 hn         1 0EK       0.417000
     92 HD21         4.8530     0.2850    -4.9320 h4         1 0EK       0.209000
     93 HE11         6.4190    -3.6060    -3.9810 h5         1 0EK       0.241000
     94 HE21         6.6330    -1.4620    -5.4380 hn         1 0EK       0.413000
     95 H2           1.6820     2.0620    -2.7320 hn         1 0EK       0.309500
     96 HA2          0.1400     2.6780    -0.2870 h1         1 0EK       0.103700
     97 HB22         1.0190     4.4930    -1.6880 hc         1 0EK       0.046700
     98 HB32         0.1120     3.9200    -3.0700 hc         1 0EK       0.046700
     99 HG          -2.0310     4.4530    -1.9500 hc         1 0EK       0.041700
    100 HD12        -0.0650     6.8060    -1.9590 hc         1 0EK       0.050700
    101 HD13        -0.9550     6.1920    -3.3490 hc         1 0EK       0.050700
    102 HD23        -1.3990     4.1280     0.4580 hc         1 0EK       0.050700
    103 HD22        -0.3180     5.5160     0.3830 hc         1 0EK       0.050700
    104 HE12        -2.0780     8.2100    -2.3690 hc         1 0EK       0.029950
    105 HE13        -3.1280     6.7980    -2.3040 hc         1 0EK       0.029950
    106 HE23        -3.3800     5.5290     0.0630 hc         1 0EK       0.029950
    107 HE22        -2.4730     6.1630     1.4300 hc         1 0EK       0.029950
    108 HZ2         -1.4650     7.9430     0.0240 hc         1 0EK       0.046700
    109 HZ3         -3.2180     8.0020    -0.1290 hc         1 0EK       0.046700
    110 HH          -2.0570     2.3620    -1.4320 h1         1 0EK       0.106700
    111 HO          -0.4110     0.9570    -3.3270 ho         1 0EK       0.427000
    112 HM1         -0.6260    -0.3070    -1.2200 h1         1 0EK       0.058200
    113 HM2         -1.0340     0.6730     0.1860 h1         1 0EK       0.058200
    114 HB23        -4.0690    -1.1570    -2.1100 h1         1 0EK       0.044200
    115 HB24        -2.4510    -0.9600    -2.7480 h1         1 0EK       0.044200
    116 HG2         -1.5460    -2.5680    -1.0950 hc         1 0EK       0.028700
    117 HD31        -4.4520    -3.0370    -0.2260 hc         1 0EK       0.043200
    118 HD32        -3.0550    -4.0160     0.2610 hc         1 0EK       0.043200
    119 HD33        -3.1620    -2.3250     0.7690 hc         1 0EK       0.043200
    120 HD41        -2.2160    -3.3560    -3.3490 hc         1 0EK       0.043200
    121 HD42        -2.4640    -4.6230    -2.1330 hc         1 0EK       0.043200
    122 HD43        -3.8550    -3.7080    -2.7560 hc         1 0EK       0.043200
    123 H3          -5.0830    -0.7870    -0.7380 hn         1 0EK       0.342500
    124 HA3         -5.7910     0.8830     1.6110 h1         1 0EK       0.082700
    125 HB25        -7.1980     1.2170    -1.1040 hc         1 0EK       0.080700
    126 HB33        -7.7350     1.9280     0.4100 hc         1 0EK       0.080700
    127 HG21        -5.5900     3.2650     0.5300 hc         1 0EK       0.051700
    128 HG3         -5.1120     2.6050    -1.0350 hc         1 0EK       0.051700
    129 HD24        -7.1330     3.6180    -2.1020 hc         1 0EK       0.069700
    130 HD3         -7.6240     4.2890    -0.5440 hc         1 0EK       0.069700
    131 HE24        -5.5300     5.6440    -0.4520 hx         1 0EK       0.102700
    132 HE3         -5.0140     4.9600    -2.0090 hx         1 0EK       0.102700
    133 HZ1         -6.1210     7.1560    -2.3190 hn         1 0EK       0.508667
    134 HZ21        -7.0210     5.9930    -3.0500 hn         1 0EK       0.508667
    135 HZ31        -7.5010     6.6220    -1.6070 hn         1 0EK       0.508667
    136 H4          -7.9570     0.4650     2.4040 hn         1 0EK       0.296500
    137 HA4         -9.1000    -2.2280     1.7820 h1         1 0EK       0.073700
    138 HB26        -8.2660    -1.3870     4.6040 hc         1 0EK       0.065200
    139 HB34        -9.0410    -2.8890     4.1540 hc         1 0EK       0.065200
    140 HD14        -5.8490    -1.0840     4.3560 ha         1 0EK       0.111000
    141 HD25        -7.7730    -4.5870     2.7050 ha         1 0EK       0.111000
    142 HE14        -3.6260    -2.1240     3.9620 ha         1 0EK       0.101000
    143 HE25        -5.5450    -5.6230     2.3180 ha         1 0EK       0.101000
    144 HZ4         -3.4700    -4.3960     2.9490 ha         1 0EK       0.098000
@<TRIPOS>BOND
     1     1     2 2   
     2     2     3 1   
     3     2     8 1   
     4     3     4 1   
     5     4     5 1   
     6     4     6 1   
     7     4     7 1   
     8     5    69 1   
     9     5    70 1   
    10     5    71 1   
    11     6    72 1   
    12     6    73 1   
    13     6    74 1   
    14     7    75 1   
    15     7    76 1   
    16     7    77 1   
    17     8     9 1   
    18     8    78 1   
    19     9    10 1   
    20     9    12 1   
    21     9    79 1   
    22    10    11 2   
    23    10    19 1   
    24    12    13 1   
    25    12    80 1   
    26    12    81 1   
    27    13    14 ar  
    28    13    15 ar  
    29    14    16 ar  
    30    14    82 1   
    31    15    17 ar  
    32    15    83 1   
    33    16    18 ar  
    34    16    84 1   
    35    17    18 ar  
    36    17    85 1   
    37    18    86 1   
    38    19    20 1   
    39    19    87 1   
    40    20    21 1   
    41    20    23 1   
    42    20    88 1   
    43    21    22 2   
    44    21    29 1   
    45    23    24 1   
    46    23    89 1   
    47    23    90 1   
    48    24    25 1   
    49    24    26 2   
    50    25    27 2   
    51    25    91 1   
    52    26    28 1   
    53    26    92 1   
    54    27    28 1   
    55    27    93 1   
    56    28    94 1   
    57    29    30 1   
    58    29    95 1   
    59    30    31 1   
    60    30    38 1   
    61    30    96 1   
    62    31    32 1   
    63    31    97 1   
    64    31    98 1   
    65    32    33 1   
    66    32    34 1   
    67    32    99 1   
    68    33    35 1   
    69    33   100 1   
    70    33   101 1   
    71    34    36 1   
    72    34   102 1   
    73    34   103 1   
    74    35    37 1   
    75    35   104 1   
    76    35   105 1   
    77    36    37 1   
    78    36   106 1   
    79    36   107 1   
    80    37   108 1   
    81    37   109 1   
    82    38    39 1   
    83    38    40 1   
    84    38   110 1   
    85    39   111 1   
    86    40    41 1   
    87    40   112 1   
    88    40   113 1   
    89    41    42 1   
    90    41    46 1   
    91    42    43 1   
    92    42   114 1   
    93    42   115 1   
    94    43    44 1   
    95    43    45 1   
    96    43   116 1   
    97    44   117 1   
    98    44   118 1   
    99    44   119 1   
   100    45   120 1   
   101    45   121 1   
   102    45   122 1   
   103    46    47 2   
   104    46    48 1   
   105    48    49 1   
   106    48   123 1   
   107    49    50 1   
   108    49    52 1   
   109    49   124 1   
   110    50    51 2   
   111    50    57 1   
   112    52    53 1   
   113    52   125 1   
   114    52   126 1   
   115    53    54 1   
   116    53   127 1   
   117    53   128 1   
   118    54    55 1   
   119    54   129 1   
   120    54   130 1   
   121    55    56 1   
   122    55   131 1   
   123    55   132 1   
   124    56   133 1   
   125    56   134 1   
   126    56   135 1   
   127    57    58 1   
   128    57   136 1   
   129    58    59 1   
   130    58    61 1   
   131    58   137 1   
   132    59    60 1   
   133    59    68 1   
   134    61    62 1   
   135    61   138 1   
   136    61   139 1   
   137    62    63 ar  
   138    62    64 ar  
   139    63    65 ar  
   140    63   140 1   
   141    64    66 ar  
   142    64   141 1   
   143    65    67 ar  
   144    65   142 1   
   145    66    67 ar  
   146    66   143 1   
   147    67   144 1   
@<TRIPOS>SUBSTRUCTURE
     1 0EK         1 TEMP              0 ****  ****    0 ROOT
