@<TRIPOS>MOLECULE
0EK
  144   147     1     0     0
SMALL
bcc


@<TRIPOS>ATOM
      1 O1           6.7030    -2.3050     1.7830 o          1 0EK      -0.568000
      2 C            7.3810    -2.0010     0.8260 c          1 0EK       0.755100
      3 O2           8.2400    -2.7930     0.1890 os         1 0EK      -0.477900
      4 CT           8.6240    -4.1010     0.6960 c3         1 0EK       0.197800
      5 C1           7.4490    -5.0680     0.6480 c3         1 0EK      -0.111433
      6 C2           9.6990    -4.5450    -0.2880 c3         1 0EK      -0.111433
      7 C3           9.2140    -3.9890     2.0960 c3         1 0EK      -0.111433
      8 N            7.3310    -0.7970     0.2030 ns         1 0EK      -0.589900
      9 CA           6.6110     0.3320     0.7390 c3         1 0EK       0.048700
     10 C4           5.7170     0.8590    -0.3790 c          1 0EK       0.651100
     11 O            6.1980     1.3900    -1.3670 o          1 0EK      -0.608100
     12 CB           7.5620     1.4220     1.2450 c3         1 0EK      -0.038100
     13 CG           8.4700     0.8860     2.3140 ca         1 0EK      -0.103300
     14 CD1          9.7260     0.3760     1.9980 ca         1 0EK      -0.118000
     15 CD2          8.0450     0.8350     3.6400 ca         1 0EK      -0.118000
     16 CE1         10.5380    -0.1770     2.9790 ca         1 0EK      -0.122000
     17 CE2          8.8540     0.2870     4.6250 ca         1 0EK      -0.122000
     18 CZ          10.1030    -0.2250     4.2960 ca         1 0EK      -0.113000
     19 N1           4.4020     0.6380    -0.2130 ns         1 0EK      -0.571900
     20 CA1          3.4170     0.9710    -1.2060 c3         1 0EK       0.021700
     21 C5           2.1520     1.4700    -0.5120 c          1 0EK       0.655100
     22 O3           1.8700     1.0950     0.6150 o          1 0EK      -0.571100
     23 CB1          3.0510    -0.2570    -2.0730 c3         1 0EK      -0.040100
     24 CG1          4.2620    -0.8940    -2.6460 cc         1 0EK      -0.059600
     25 ND1          4.9960    -1.8430    -1.9750 na         1 0EK      -0.111100
     26 CD21         4.9370    -0.6560    -3.7990 cd         1 0EK      -0.110300
     27 CE11         6.0700    -2.1700    -2.6740 cc         1 0EK      -0.008600
     28 NE2          6.0460    -1.4570    -3.7840 na         1 0EK      -0.113100
     29 N2           1.3860     2.2740    -1.2620 ns         1 0EK      -0.569900
     30 CA2          0.1120     2.8340    -0.8310 c3         1 0EK       0.079700
     31 CB2          0.0840     4.3240    -1.1760 c3         1 0EK      -0.079400
     32 CG2         -1.2210     5.0500    -0.8500 c6         1 0EK      -0.054700
     33 CD11        -1.0890     6.5340    -1.1960 c6         1 0EK      -0.079900
     34 CD22        -1.6490     4.8830     0.6090 c6         1 0EK      -0.079900
     35 CE12        -2.3700     7.3070    -0.9000 c6         1 0EK      -0.065400
     36 CE21        -2.9210     5.6650     0.9210 c6         1 0EK      -0.065400
     37 CZ1         -2.7850     7.1390     0.5570 c6         1 0EK      -0.085400
     38 CH          -1.0680     2.0590    -1.4260 c3         1 0EK       0.098100
     39 OH          -1.1510     2.1980    -2.8280 oh         1 0EK      -0.593800
     40 CM          -1.0850     0.5930    -0.9870 c3         1 0EK       0.093000
     41 N11         -2.3680    -0.0380    -1.2270 n          1 0EK      -0.495800
     42 CB21        -2.5340    -0.7730    -2.4690 c3         1 0EK       0.110000
     43 CG21        -2.1240    -2.2460    -2.3990 c3         1 0EK      -0.078700
     44 CD3         -2.9690    -3.0530    -1.4210 c3         1 0EK      -0.095600
     45 CD4         -2.1890    -2.8510    -3.7970 c3         1 0EK      -0.095600
     46 C6          -3.3770     0.2750    -0.3610 c          1 0EK       0.791100
     47 O4          -3.1820     1.0110     0.6060 o          1 0EK      -0.676100
     48 N3          -4.6010    -0.2490    -0.6240 ns         1 0EK      -0.576900
     49 CA3         -5.7790     0.0930     0.1290 c3         1 0EK       0.033700
     50 C7          -6.6040    -1.1710     0.3360 c          1 0EK       0.659100
     51 O5          -6.6590    -2.0300    -0.5380 o          1 0EK      -0.635100
     52 CB3         -6.6430     1.1340    -0.5990 c3         1 0EK      -0.092400
     53 CG3         -5.9110     2.4500    -0.8280 c3         1 0EK      -0.068400
     54 CD          -6.7550     3.4510    -1.6050 c3         1 0EK      -0.106400
     55 CE          -5.9880     4.7400    -1.8230 c3         1 0EK       0.122800
     56 NZ          -6.7760     5.7070    -2.6300 nz         1 0EK      -0.835600
     57 N4          -7.2490    -1.2410     1.5000 ns         1 0EK      -0.490900
     58 CA4         -8.2810    -2.2060     1.7790 c3         1 0EK      -0.048300
     59 C8          -9.6730    -1.7540     1.2560 c          1 0EK       0.928600
     60 O6          -9.7310    -0.6800     0.6340 o          1 0EK      -0.822300
     61 CB4         -8.3150    -2.5100     3.2810 c3         1 0EK      -0.038100
     62 CG4         -6.9960    -3.0190     3.7920 ca         1 0EK      -0.054300
     63 CD12        -6.1170    -2.1880     4.4810 ca         1 0EK      -0.129500
     64 CD23        -6.6100    -4.3370     3.5530 ca         1 0EK      -0.129500
     65 CE13        -4.8850    -2.6570     4.9200 ca         1 0EK      -0.133000
     66 CE22        -5.3810    -4.8110     3.9870 ca         1 0EK      -0.133000
     67 CZ2         -4.5120    -3.9710     4.6720 ca         1 0EK      -0.149000
     68 OXT        -10.6090    -2.5360     1.5100 o          1 0EK      -0.822300
     69 H11          7.0110    -5.1070    -0.3510 hc         1 0EK       0.054589
     70 H12          7.8010    -6.0720     0.8900 hc         1 0EK       0.054589
     71 H13          6.6680    -4.8090     1.3600 hc         1 0EK       0.054589
     72 H21         10.5390    -3.8490    -0.3030 hc         1 0EK       0.054589
     73 H22         10.0810    -5.5250    -0.0020 hc         1 0EK       0.054589
     74 H23          9.3020    -4.6260    -1.3020 hc         1 0EK       0.054589
     75 H31          8.4610    -3.7610     2.8480 hc         1 0EK       0.054589
     76 H32          9.6740    -4.9410     2.3640 hc         1 0EK       0.054589
     77 H33          9.9880    -3.2210     2.1380 hc         1 0EK       0.054589
     78 H            8.0070    -0.6150    -0.5240 hn         1 0EK       0.325500
     79 HA           6.0100    -0.0290     1.5730 h1         1 0EK       0.101700
     80 HB2          8.1420     1.8130     0.4060 hc         1 0EK       0.069200
     81 HB3          6.9640     2.2510     1.6310 hc         1 0EK       0.069200
     82 HD1         10.0790     0.4160     0.9730 ha         1 0EK       0.126500
     83 HD2          7.0710     1.2290     3.9040 ha         1 0EK       0.126500
     84 HE1         11.5110    -0.5700     2.7130 ha         1 0EK       0.138500
     85 HE2          8.5100     0.2610     5.6510 ha         1 0EK       0.138500
     86 HZ          10.7350    -0.6530     5.0640 ha         1 0EK       0.141000
     87 H1           4.0700     0.2270     0.6460 hn         1 0EK       0.354500
     88 HA1          3.8320     1.7440    -1.8530 h1         1 0EK       0.095700
     89 HB21         2.5040    -0.9850    -1.4680 hc         1 0EK       0.091200
     90 HB31         2.3920     0.0500    -2.8850 hc         1 0EK       0.091200
     91 HD11         4.7420    -2.2580    -1.0890 hn         1 0EK       0.366700
     92 HD21         4.7240     0.0200    -4.6080 h4         1 0EK       0.227000
     93 HE11         6.8200    -2.8910    -2.3990 h5         1 0EK       0.259000
     94 HE21         6.7460    -1.5060    -4.5110 hn         1 0EK       0.362700
     95 H2           1.7660     2.6030    -2.1380 hn         1 0EK       0.309500
     96 HA2          0.0650     2.7190     0.2530 h1         1 0EK       0.103700
     97 HB22         0.9040     4.8080    -0.6360 hc         1 0EK       0.046700
     98 HB32         0.2980     4.4530    -2.2420 hc         1 0EK       0.046700
     99 HG          -2.0190     4.6440    -1.4860 hc         1 0EK       0.041700
    100 HD12        -0.2650     6.9650    -0.6140 hc         1 0EK       0.050700
    101 HD13        -0.8150     6.6450    -2.2490 hc         1 0EK       0.050700
    102 HD23        -1.8140     3.8280     0.8450 hc         1 0EK       0.050700
    103 HD22        -0.8360     5.2250     1.2620 hc         1 0EK       0.050700
    104 HE12        -2.2340     8.3640    -1.1380 hc         1 0EK       0.029950
    105 HE13        -3.1730     6.9430    -1.5520 hc         1 0EK       0.029950
    106 HE23        -3.7530     5.2300     0.3550 hc         1 0EK       0.029950
    107 HE22        -3.1800     5.5540     1.9760 hc         1 0EK       0.029950
    108 HZ2         -2.0280     7.6000     1.2020 hc         1 0EK       0.046700
    109 HZ3         -3.7220     7.6670     0.7530 hc         1 0EK       0.046700
    110 HH          -1.9750     2.5180    -1.0330 h1         1 0EK       0.106700
    111 HO          -0.3810     1.7840    -3.2310 ho         1 0EK       0.388000
    112 HM1         -0.3250     0.0230    -1.5270 h1         1 0EK       0.058200
    113 HM2         -0.8240     0.5200     0.0690 h1         1 0EK       0.058200
    114 HB23        -3.5630    -0.6820    -2.8260 h1         1 0EK       0.044200
    115 HB24        -1.9310    -0.2790    -3.2320 h1         1 0EK       0.044200
    116 HG2         -1.0820    -2.2820    -2.0600 hc         1 0EK       0.028700
    117 HD31        -4.0170    -3.0870    -1.7320 hc         1 0EK       0.043200
    118 HD32        -2.6160    -4.0840    -1.3720 hc         1 0EK       0.043200
    119 HD33        -2.9310    -2.6500    -0.4080 hc         1 0EK       0.043200
    120 HD41        -1.5580    -2.3070    -4.5020 hc         1 0EK       0.043200
    121 HD42        -1.8580    -3.8900    -3.7900 hc         1 0EK       0.043200
    122 HD43        -3.2110    -2.8330    -4.1830 hc         1 0EK       0.043200
    123 H3          -4.7210    -0.9770    -1.3090 hn         1 0EK       0.342500
    124 HA3         -5.4680     0.4980     1.0940 h1         1 0EK       0.082700
    125 HB25        -6.9590     0.7170    -1.5600 hc         1 0EK       0.080700
    126 HB33        -7.5550     1.3060    -0.0210 hc         1 0EK       0.080700
    127 HG21        -5.6130     2.8810     0.1330 hc         1 0EK       0.051700
    128 HG3         -4.9890     2.2610    -1.3840 hc         1 0EK       0.051700
    129 HD24        -7.0350     3.0230    -2.5730 hc         1 0EK       0.069700
    130 HD3         -7.6840     3.6640    -1.0680 hc         1 0EK       0.069700
    131 HE24        -5.7600     5.2330    -0.8790 hx         1 0EK       0.102700
    132 HE3         -5.0580     4.5670    -2.3620 hx         1 0EK       0.102700
    133 HZ1         -6.2650     6.5750    -2.7900 hn         1 0EK       0.453467
    134 HZ21        -7.0130     5.3290    -3.5470 hn         1 0EK       0.453467
    135 HZ31        -7.6510     5.9590    -2.1720 hn         1 0EK       0.453467
    136 H4          -7.1960    -0.4410     2.1110 hn         1 0EK       0.296500
    137 HA4         -8.0160    -3.1290     1.2560 h1         1 0EK       0.073700
    138 HB26        -8.6050    -1.6080     3.8300 hc         1 0EK       0.065200
    139 HB34        -9.0970    -3.2480     3.4540 hc         1 0EK       0.065200
    140 HD14        -6.4000    -1.1620     4.6860 ha         1 0EK       0.129000
    141 HD25        -7.2820    -5.0010     3.0200 ha         1 0EK       0.129000
    142 HE14        -4.2180    -1.9950     5.4560 ha         1 0EK       0.119000
    143 HE25        -5.1030    -5.8400     3.7940 ha         1 0EK       0.119000
    144 HZ4         -3.5540    -4.3390     5.0160 ha         1 0EK       0.116000
@<TRIPOS>BOND
     1     1     2 2   
     2     2     3 1   
     3     2     8 1   
     4     3     4 1   
     5     4     5 1   
     6     4     6 1   
     7     4     7 1   
     8     5    69 1   
     9     5    70 1   
    10     5    71 1   
    11     6    72 1   
    12     6    73 1   
    13     6    74 1   
    14     7    75 1   
    15     7    76 1   
    16     7    77 1   
    17     8     9 1   
    18     8    78 1   
    19     9    10 1   
    20     9    12 1   
    21     9    79 1   
    22    10    11 2   
    23    10    19 1   
    24    12    13 1   
    25    12    80 1   
    26    12    81 1   
    27    13    14 ar  
    28    13    15 ar  
    29    14    16 ar  
    30    14    82 1   
    31    15    17 ar  
    32    15    83 1   
    33    16    18 ar  
    34    16    84 1   
    35    17    18 ar  
    36    17    85 1   
    37    18    86 1   
    38    19    20 1   
    39    19    87 1   
    40    20    21 1   
    41    20    23 1   
    42    20    88 1   
    43    21    22 2   
    44    21    29 1   
    45    23    24 1   
    46    23    89 1   
    47    23    90 1   
    48    24    25 1   
    49    24    26 2   
    50    25    27 2   
    51    25    91 1   
    52    26    28 1   
    53    26    92 1   
    54    27    28 1   
    55    27    93 1   
    56    28    94 1   
    57    29    30 1   
    58    29    95 1   
    59    30    31 1   
    60    30    38 1   
    61    30    96 1   
    62    31    32 1   
    63    31    97 1   
    64    31    98 1   
    65    32    33 1   
    66    32    34 1   
    67    32    99 1   
    68    33    35 1   
    69    33   100 1   
    70    33   101 1   
    71    34    36 1   
    72    34   102 1   
    73    34   103 1   
    74    35    37 1   
    75    35   104 1   
    76    35   105 1   
    77    36    37 1   
    78    36   106 1   
    79    36   107 1   
    80    37   108 1   
    81    37   109 1   
    82    38    39 1   
    83    38    40 1   
    84    38   110 1   
    85    39   111 1   
    86    40    41 1   
    87    40   112 1   
    88    40   113 1   
    89    41    42 1   
    90    41    46 1   
    91    42    43 1   
    92    42   114 1   
    93    42   115 1   
    94    43    44 1   
    95    43    45 1   
    96    43   116 1   
    97    44   117 1   
    98    44   118 1   
    99    44   119 1   
   100    45   120 1   
   101    45   121 1   
   102    45   122 1   
   103    46    47 2   
   104    46    48 1   
   105    48    49 1   
   106    48   123 1   
   107    49    50 1   
   108    49    52 1   
   109    49   124 1   
   110    50    51 2   
   111    50    57 1   
   112    52    53 1   
   113    52   125 1   
   114    52   126 1   
   115    53    54 1   
   116    53   127 1   
   117    53   128 1   
   118    54    55 1   
   119    54   129 1   
   120    54   130 1   
   121    55    56 1   
   122    55   131 1   
   123    55   132 1   
   124    56   133 1   
   125    56   134 1   
   126    56   135 1   
   127    57    58 1   
   128    57   136 1   
   129    58    59 1   
   130    58    61 1   
   131    58   137 1   
   132    59    60 1   
   133    59    68 1   
   134    61    62 1   
   135    61   138 1   
   136    61   139 1   
   137    62    63 ar  
   138    62    64 ar  
   139    63    65 ar  
   140    63   140 1   
   141    64    66 ar  
   142    64   141 1   
   143    65    67 ar  
   144    65   142 1   
   145    66    67 ar  
   146    66   143 1   
   147    67   144 1   
@<TRIPOS>SUBSTRUCTURE
     1 0EK         1 TEMP              0 ****  ****    0 ROOT
