@<TRIPOS>MOLECULE
0EL
  145   148     1     0     0
SMALL
No Charge or Current Charge


@<TRIPOS>ATOM
      1 O1           6.3030    -2.3840    -0.2500 o          1 0EL      -0.643000
      2 C            7.4180    -1.9170    -0.0720 c          1 0EL       0.673100
      3 O2           8.6180    -2.5500    -0.2270 os         1 0EL      -0.459100
      4 CT           8.7200    -3.9510    -0.5710 c3         1 0EL       0.225000
      5 C1           8.0770    -4.2000    -1.9590 c3         1 0EL      -0.112433
      6 C2          10.2390    -4.2160    -0.6370 c3         1 0EL      -0.112433
      7 C3           8.0800    -4.8050     0.5540 c3         1 0EL      -0.112433
      8 N            7.6570    -0.6350     0.3200 ns         1 0EL      -0.472900
      9 CA           6.6040     0.3280     0.6980 c3         1 0EL       0.055700
     10 C4           5.6410     0.5950    -0.4930 c          1 0EL       0.591100
     11 O            6.0110     0.6700    -1.6580 o          1 0EL      -0.601100
     12 CB           7.2240     1.6450     1.2220 c3         1 0EL      -0.040100
     13 CG           8.2270     1.4210     2.3500 ca         1 0EL      -0.109300
     14 CD1          9.5990     1.6710     2.1470 ca         1 0EL      -0.107500
     15 CD2          7.7890     0.9550     3.6050 ca         1 0EL      -0.107500
     16 CE1         10.5210     1.4550     3.1860 ca         1 0EL      -0.102000
     17 CE2          8.7110     0.7390     4.6440 ca         1 0EL      -0.102000
     18 CZ          10.0780     0.9880     4.4350 ca         1 0EL      -0.095000
     19 N1           4.3160     0.7290    -0.1380 ns         1 0EL      -0.501900
     20 CA1          3.1830     0.8720    -1.0810 c3         1 0EL       0.027700
     21 C5           2.0790     1.7680    -0.4500 c          1 0EL       0.592100
     22 O3           2.0080     1.9990     0.7510 o          1 0EL      -0.596100
     23 CB1          2.6030    -0.5190    -1.4670 c3         1 0EL      -0.039100
     24 CG1          3.3570    -1.2320    -2.5590 cc         1 0EL      -0.106300
     25 ND1          4.5120    -2.0010    -2.3700 na         1 0EL      -0.102700
     26 CD21         3.0330    -1.2890    -3.9010 cd         1 0EL      -0.160000
     27 CE11         4.9100    -2.5180    -3.5920 cc         1 0EL      -0.059300
     28 NE2          3.9940    -2.0710    -4.5060 na         1 0EL      -0.068000
     29 N2           1.1710     2.2770    -1.3530 ns         1 0EL      -0.494900
     30 CA2         -0.0530     3.0160    -1.0140 c3         1 0EL       0.077700
     31 CB2          0.1440     4.5220    -1.3420 c3         1 0EL      -0.080400
     32 CG2         -1.0390     5.4830    -0.9980 c6         1 0EL      -0.057700
     33 CD11        -0.6860     6.9450    -1.3950 c6         1 0EL      -0.071900
     34 CD22        -1.4520     5.4190     0.5030 c6         1 0EL      -0.071900
     35 CE12        -1.8460     7.9210    -1.0790 c6         1 0EL      -0.073400
     36 CE21        -2.6080     6.4000     0.8200 c6         1 0EL      -0.073400
     37 CZ1         -2.2460     7.8480     0.4130 c6         1 0EL      -0.074400
     38 CH          -1.2810     2.3540    -1.7170 c3         1 0EL       0.155300
     39 OH          -1.0410     2.2800    -3.1290 oh         1 0EL      -0.646000
     40 CM          -1.5710     0.9340    -1.1540 c3         1 0EL      -0.097400
     41 CA21        -2.7810     0.1660    -1.7780 c3         1 0EL      -0.128700
     42 CB21        -2.5610    -0.4680    -3.1970 c3         1 0EL      -0.072400
     43 CG21        -1.1770    -1.1040    -3.5500 c3         1 0EL      -0.049700
     44 CD3         -0.7800    -2.3050    -2.6610 c3         1 0EL      -0.099600
     45 CD4         -1.1390    -1.5120    -5.0410 c3         1 0EL      -0.099600
     46 C6          -3.3910    -0.8360    -0.7640 c          1 0EL       0.604100
     47 O4          -2.7800    -1.7840    -0.2960 o          1 0EL      -0.630100
     48 N3          -4.6910    -0.5630    -0.3970 ns         1 0EL      -0.500900
     49 CA3         -5.4800    -1.3250     0.5980 c3         1 0EL       0.023700
     50 C7          -6.9640    -1.4230     0.1390 c          1 0EL       0.573100
     51 O5          -7.4380    -0.7150    -0.7430 o          1 0EL      -0.634100
     52 CB3         -5.3920    -0.6730     2.0060 c3         1 0EL      -0.082400
     53 CG3         -3.9630    -0.5450     2.5840 c3         1 0EL      -0.069400
     54 CD          -3.9480     0.0380     4.0130 c3         1 0EL      -0.107400
     55 CE          -2.5260     0.1740     4.5780 c3         1 0EL       0.097600
     56 NZ          -2.5570     0.7430     5.9710 nz         1 0EL      -0.974000
     57 N4          -7.7150    -2.3740     0.8030 ns         1 0EL      -0.441900
     58 CA4         -9.1880    -2.5250     0.6990 c3         1 0EL      -0.047300
     59 C8          -9.5800    -4.0200     0.5090 c          1 0EL       0.715000
     60 O6          -9.0830    -4.8520     1.2560 o          1 0EL      -0.714000
     61 CB4         -9.9040    -1.9040     1.9270 c3         1 0EL      -0.039100
     62 CG4         -9.4260    -0.4920     2.2590 ca         1 0EL      -0.046300
     63 CD12        -9.7130     0.5800     1.3920 ca         1 0EL      -0.104500
     64 CD23        -8.6790    -0.2510     3.4300 ca         1 0EL      -0.104500
     65 CE13        -9.2510     1.8750     1.6860 ca         1 0EL      -0.119000
     66 CE22        -8.2170     1.0440     3.7240 ca         1 0EL      -0.119000
     67 CZ2         -8.5020     2.1070     2.8520 ca         1 0EL      -0.130000
     68 OXT        -10.3030    -4.3100    -0.4340 o          1 0EL      -0.714000
     69 H11          8.3920    -3.4340    -2.6780 hc         1 0EL       0.054367
     70 H12          8.3820    -5.1780    -2.3510 hc         1 0EL       0.054367
     71 H13          6.9840    -4.2020    -1.9050 hc         1 0EL       0.054367
     72 H21         10.7160    -3.9970     0.3250 hc         1 0EL       0.054367
     73 H22         10.4420    -5.2650    -0.8850 hc         1 0EL       0.054367
     74 H23         10.7110    -3.5890    -1.4030 hc         1 0EL       0.054367
     75 H31          6.9880    -4.7200     0.5610 hc         1 0EL       0.054367
     76 H32          8.3240    -5.8650     0.4130 hc         1 0EL       0.054367
     77 H33          8.4570    -4.4980     1.5370 hc         1 0EL       0.054367
     78 H            8.6290    -0.3830     0.4400 hn         1 0EL       0.354500
     79 HA           6.0160    -0.1280     1.5050 h1         1 0EL       0.068700
     80 HB2          7.7030     2.1690     0.3840 hc         1 0EL       0.073700
     81 HB3          6.4200     2.3050     1.5680 hc         1 0EL       0.073700
     82 HD1          9.9550     2.0330     1.1840 ha         1 0EL       0.112000
     83 HD2          6.7330     0.7590     3.7780 ha         1 0EL       0.112000
     84 HE1         11.5790     1.6490     3.0230 ha         1 0EL       0.122000
     85 HE2          8.3660     0.3780     5.6110 ha         1 0EL       0.122000
     86 HZ          10.7910     0.8210     5.2390 ha         1 0EL       0.124000
     87 H1           4.1040     0.7030     0.8540 hn         1 0EL       0.348500
     88 HA1          3.5240     1.3860    -1.9890 h1         1 0EL       0.088700
     89 HB21         2.5340    -1.1500    -0.5720 hc         1 0EL       0.099700
     90 HB31         1.5700    -0.3920    -1.8100 hc         1 0EL       0.099700
     91 HD11         5.0110    -2.1390    -1.4840 hn         1 0EL       0.451000
     92 HD21         2.2090    -0.8390    -4.4470 h4         1 0EL       0.205000
     93 HE11         5.7770    -3.1420    -3.7900 h5         1 0EL       0.226000
     94 HE21         4.0180    -2.2860    -5.4990 hn         1 0EL       0.406000
     95 H2           1.3100     2.0410    -2.3290 hn         1 0EL       0.315500
     96 HA2         -0.2130     2.9320     0.0690 h1         1 0EL       0.085700
     97 HB22         1.0420     4.8630    -0.8120 hc         1 0EL       0.048200
     98 HB32         0.3790     4.6120    -2.4100 hc         1 0EL       0.048200
     99 HG          -1.8950     5.1710    -1.6110 hc         1 0EL       0.059700
    100 HD12         0.2190     7.2690    -0.8620 hc         1 0EL       0.036700
    101 HD13        -0.4490     6.9960    -2.4670 hc         1 0EL       0.036700
    102 HD23        -1.7720     4.4030     0.7700 hc         1 0EL       0.036700
    103 HD22        -0.5860     5.6510     1.1390 hc         1 0EL       0.036700
    104 HE12        -1.5490     8.9470    -1.3360 hc         1 0EL       0.041450
    105 HE13        -2.7140     7.6800    -1.7090 hc         1 0EL       0.041450
    106 HE23        -3.5170     6.0830     0.2900 hc         1 0EL       0.041450
    107 HE22        -2.8440     6.3620     1.8920 hc         1 0EL       0.041450
    108 HZ2         -1.4180     8.2130     1.0380 hc         1 0EL       0.042200
    109 HZ3         -3.0990     8.5140     0.6040 hc         1 0EL       0.042200
    110 HH          -2.1720     2.9660    -1.5190 h1         1 0EL       0.082700
    111 HO          -1.4730     1.4590    -3.4410 ho         1 0EL       0.437000
    112 HM1         -0.6710     0.3130    -1.1960 hc         1 0EL       0.056700
    113 HM2         -1.7760     1.0610    -0.0830 hc         1 0EL       0.056700
    114 HA21        -3.5620     0.9210    -1.9330 hc         1 0EL       0.052700
    115 HB23        -3.3420    -1.2240    -3.3590 hc         1 0EL       0.057200
    116 HB24        -2.7740     0.3070    -3.9440 hc         1 0EL       0.057200
    117 HG2         -0.4020    -0.3410    -3.4260 hc         1 0EL       0.002700
    118 HD31        -1.5680    -3.0680    -2.6580 hc         1 0EL       0.044533
    119 HD32         0.1430    -2.7690    -3.0280 hc         1 0EL       0.044533
    120 HD33        -0.5910    -1.9910    -1.6300 hc         1 0EL       0.044533
    121 HD41        -1.3450    -0.6510    -5.6870 hc         1 0EL       0.044533
    122 HD42        -0.1510    -1.9040    -5.3130 hc         1 0EL       0.044533
    123 HD43        -1.8850    -2.2880    -5.2540 hc         1 0EL       0.044533
    124 H3          -5.1430     0.2160    -0.8630 hn         1 0EL       0.331500
    125 HA3         -5.0940    -2.3510     0.6530 h1         1 0EL       0.084700
    126 HB25        -5.8500     0.3230     1.9640 hc         1 0EL       0.066700
    127 HB33        -5.9970    -1.2620     2.7070 hc         1 0EL       0.066700
    128 HG21        -3.4850    -1.5330     2.5900 hc         1 0EL       0.057200
    129 HG3         -3.3600     0.1010     1.9340 hc         1 0EL       0.057200
    130 HD24        -4.4300     1.0240     4.0060 hc         1 0EL       0.065200
    131 HD3         -4.5390    -0.6070     4.6740 hc         1 0EL       0.065200
    132 HE24        -2.0450    -0.8110     4.5980 hx         1 0EL       0.103700
    133 HE3         -1.9360     0.8320     3.9300 hx         1 0EL       0.103700
    134 HZ1         -3.0850     0.1580     6.6370 hn         1 0EL       0.509333
    135 HZ21        -1.6170     0.8480     6.3850 hn         1 0EL       0.509333
    136 HZ31        -2.9850     1.6800     6.0190 hn         1 0EL       0.509333
    137 H4          -7.2280    -2.9520     1.4790 hn         1 0EL       0.332500
    138 HA4         -9.5290    -1.9940    -0.1980 h1         1 0EL       0.071700
    139 HB26       -10.9850    -1.8960     1.7400 hc         1 0EL       0.063700
    140 HB34        -9.7550    -2.5610     2.7930 hc         1 0EL       0.063700
    141 HD14       -10.2850     0.4070     0.4840 ha         1 0EL       0.111500
    142 HD25        -8.4470    -1.0680     4.1100 ha         1 0EL       0.111500
    143 HE14        -9.4720     2.6960     1.0100 ha         1 0EL       0.093500
    144 HE25        -7.6360     1.2210     4.6260 ha         1 0EL       0.093500
    145 HZ4         -8.1430     3.1080     3.0780 ha         1 0EL       0.094000
@<TRIPOS>BOND
     1     1     2 2   
     2     2     3 1   
     3     2     8 1   
     4     3     4 1   
     5     4     5 1   
     6     4     6 1   
     7     4     7 1   
     8     5    69 1   
     9     5    70 1   
    10     5    71 1   
    11     6    72 1   
    12     6    73 1   
    13     6    74 1   
    14     7    75 1   
    15     7    76 1   
    16     7    77 1   
    17     8     9 1   
    18     8    78 1   
    19     9    10 1   
    20     9    12 1   
    21     9    79 1   
    22    10    11 2   
    23    10    19 1   
    24    12    13 1   
    25    12    80 1   
    26    12    81 1   
    27    13    14 ar  
    28    13    15 ar  
    29    14    16 ar  
    30    14    82 1   
    31    15    17 ar  
    32    15    83 1   
    33    16    18 ar  
    34    16    84 1   
    35    17    18 ar  
    36    17    85 1   
    37    18    86 1   
    38    19    20 1   
    39    19    87 1   
    40    20    21 1   
    41    20    23 1   
    42    20    88 1   
    43    21    22 2   
    44    21    29 1   
    45    23    24 1   
    46    23    89 1   
    47    23    90 1   
    48    24    25 1   
    49    24    26 2   
    50    25    27 2   
    51    25    91 1   
    52    26    28 1   
    53    26    92 1   
    54    27    28 1   
    55    27    93 1   
    56    28    94 1   
    57    29    30 1   
    58    29    95 1   
    59    30    31 1   
    60    30    38 1   
    61    30    96 1   
    62    31    32 1   
    63    31    97 1   
    64    31    98 1   
    65    32    33 1   
    66    32    34 1   
    67    32    99 1   
    68    33    35 1   
    69    33   100 1   
    70    33   101 1   
    71    34    36 1   
    72    34   102 1   
    73    34   103 1   
    74    35    37 1   
    75    35   104 1   
    76    35   105 1   
    77    36    37 1   
    78    36   106 1   
    79    36   107 1   
    80    37   108 1   
    81    37   109 1   
    82    38    39 1   
    83    38    40 1   
    84    38   110 1   
    85    39   111 1   
    86    40    41 1   
    87    40   112 1   
    88    40   113 1   
    89    41    42 1   
    90    41    46 1   
    91    41   114 1   
    92    42    43 1   
    93    42   115 1   
    94    42   116 1   
    95    43    44 1   
    96    43    45 1   
    97    43   117 1   
    98    44   118 1   
    99    44   119 1   
   100    44   120 1   
   101    45   121 1   
   102    45   122 1   
   103    45   123 1   
   104    46    47 2   
   105    46    48 1   
   106    48    49 1   
   107    48   124 1   
   108    49    50 1   
   109    49    52 1   
   110    49   125 1   
   111    50    51 2   
   112    50    57 1   
   113    52    53 1   
   114    52   126 1   
   115    52   127 1   
   116    53    54 1   
   117    53   128 1   
   118    53   129 1   
   119    54    55 1   
   120    54   130 1   
   121    54   131 1   
   122    55    56 1   
   123    55   132 1   
   124    55   133 1   
   125    56   134 1   
   126    56   135 1   
   127    56   136 1   
   128    57    58 1   
   129    57   137 1   
   130    58    59 1   
   131    58    61 1   
   132    58   138 1   
   133    59    60 1   
   134    59    68 1   
   135    61    62 1   
   136    61   139 1   
   137    61   140 1   
   138    62    63 ar  
   139    62    64 ar  
   140    63    65 ar  
   141    63   141 1   
   142    64    66 ar  
   143    64   142 1   
   144    65    67 ar  
   145    65   143 1   
   146    66    67 ar  
   147    66   144 1   
   148    67   145 1   
@<TRIPOS>SUBSTRUCTURE
     1 0EL         1 TEMP              0 ****  ****    0 ROOT
