@<TRIPOS>MOLECULE
0EL
  145   148     1     0     0
SMALL
bcc


@<TRIPOS>ATOM
      1 O1           5.4530    -2.5880     0.3050 o          1 0EL      -0.692000
      2 C            6.6610    -2.3850     0.3140 c          1 0EL       0.789100
      3 O2           7.5970    -3.3140     0.3700 os         1 0EL      -0.435900
      4 CT           7.3110    -4.7350     0.5330 c3         1 0EL       0.201800
      5 C1           6.5370    -5.2800    -0.6590 c3         1 0EL      -0.112433
      6 C2           8.7000    -5.3560     0.5820 c3         1 0EL      -0.112433
      7 C3           6.5800    -4.9880     1.8450 c3         1 0EL      -0.112433
      8 N            7.1950    -1.1530     0.2620 ns         1 0EL      -0.539900
      9 CA           6.3720     0.0220     0.3770 c3         1 0EL       0.055700
     10 C4           5.3880     0.1100    -0.7900 c          1 0EL       0.658100
     11 O            5.7470    -0.0250    -1.9460 o          1 0EL      -0.601100
     12 CB           7.2550     1.2760     0.3630 c3         1 0EL      -0.040100
     13 CG           8.2300     1.2960     1.5080 ca         1 0EL      -0.109300
     14 CD1          9.5890     1.0810     1.2940 ca         1 0EL      -0.125500
     15 CD2          7.7830     1.5060     2.8120 ca         1 0EL      -0.125500
     16 CE1         10.4830     1.0720     2.3580 ca         1 0EL      -0.120000
     17 CE2          8.6730     1.4980     3.8760 ca         1 0EL      -0.120000
     18 CZ          10.0270     1.2790     3.6520 ca         1 0EL      -0.113000
     19 N1           4.1310     0.3910    -0.4130 ns         1 0EL      -0.568900
     20 CA1          3.0440     0.6690    -1.3120 c3         1 0EL       0.027700
     21 C5           2.1830     1.7700    -0.6930 c          1 0EL       0.659100
     22 O3           2.0300     1.8230     0.5180 o          1 0EL      -0.596100
     23 CB1          2.1440    -0.5670    -1.5320 c3         1 0EL      -0.039100
     24 CG1          2.7900    -1.6250    -2.3470 cc         1 0EL      -0.055600
     25 ND1          3.7760    -2.4690    -1.8980 na         1 0EL      -0.103100
     26 CD21         2.5810    -1.9530    -3.6500 cd         1 0EL      -0.127300
     27 CE11         4.1640    -3.2640    -2.8790 cc         1 0EL      -0.026600
     28 NE2          3.4460    -2.9690    -3.9480 na         1 0EL      -0.119100
     29 N2           1.5930     2.5850    -1.5740 ns         1 0EL      -0.561900
     30 CA2          0.6620     3.6460    -1.2180 c3         1 0EL       0.077700
     31 CB2          1.1250     4.9500    -1.8670 c3         1 0EL      -0.080400
     32 CG2          0.2720     6.1810    -1.5650 c6         1 0EL      -0.057700
     33 CD11         0.8660     7.4040    -2.2680 c6         1 0EL      -0.071900
     34 CD22         0.1350     6.4530    -0.0660 c6         1 0EL      -0.071900
     35 CE12         0.0640     8.6710    -1.9940 c6         1 0EL      -0.073400
     36 CE21        -0.6610     7.7240     0.2140 c6         1 0EL      -0.073400
     37 CZ1         -0.0620     8.9320    -0.4980 c6         1 0EL      -0.074400
     38 CH          -0.7820     3.2540    -1.5750 c3         1 0EL       0.132100
     39 OH          -0.9780     3.2330    -2.9740 oh         1 0EL      -0.583800
     40 CM          -1.1870     1.9610    -0.8720 c3         1 0EL      -0.097400
     41 CA21        -2.6840     1.6550    -0.8740 c3         1 0EL      -0.128700
     42 CB21        -3.2740     1.2590    -2.2460 c3         1 0EL      -0.072400
     43 CG21        -2.5830     0.1510    -3.0450 c3         1 0EL      -0.049700
     44 CD3         -2.5500    -1.2010    -2.3390 c3         1 0EL      -0.099600
     45 CD4         -3.2720     0.0200    -4.4020 c3         1 0EL      -0.099600
     46 C6          -3.0140     0.6220     0.2030 c          1 0EL       0.671100
     47 O4          -2.1630    -0.0160     0.8050 o          1 0EL      -0.630100
     48 N3          -4.3330     0.4780     0.4430 ns         1 0EL      -0.567900
     49 CA3         -4.9030    -0.5920     1.2320 c3         1 0EL       0.023700
     50 C7          -5.9840    -1.2500     0.3770 c          1 0EL       0.640100
     51 O5          -6.9490    -0.6000    -0.0050 o          1 0EL      -0.634100
     52 CB3         -5.4830    -0.1050     2.5570 c3         1 0EL      -0.082400
     53 CG3         -4.4250     0.5040     3.4660 c3         1 0EL      -0.069400
     54 CD          -4.9970     0.9140     4.8180 c3         1 0EL      -0.107400
     55 CE          -3.9250     1.5390     5.6870 c3         1 0EL       0.125800
     56 NZ          -4.4680     1.9320     7.0140 nz         1 0EL      -0.836600
     57 N4          -5.7630    -2.5320     0.0820 ns         1 0EL      -0.508900
     58 CA4         -6.5970    -3.3440    -0.7680 c3         1 0EL      -0.047300
     59 C8          -5.7210    -4.2500    -1.6690 c          1 0EL       0.925600
     60 O6          -4.5080    -4.3180    -1.3980 o          1 0EL      -0.819300
     61 CB4         -7.5510    -4.2260     0.0630 c3         1 0EL      -0.039100
     62 CG4         -8.3710    -3.4300     1.0360 ca         1 0EL      -0.046300
     63 CD12        -9.5610    -2.8270     0.6360 ca         1 0EL      -0.122500
     64 CD23        -7.9380    -3.2380     2.3450 ca         1 0EL      -0.122500
     65 CE13       -10.2970    -2.0490     1.5180 ca         1 0EL      -0.137000
     66 CE22        -8.6670    -2.4550     3.2310 ca         1 0EL      -0.137000
     67 CZ2         -9.8490    -1.8560     2.8190 ca         1 0EL      -0.148000
     68 OXT         -6.3320    -4.8540    -2.5680 o          1 0EL      -0.819300
     69 H11          6.9870    -4.9600    -1.6010 hc         1 0EL       0.054367
     70 H12          6.5690    -6.3700    -0.6360 hc         1 0EL       0.054367
     71 H13          5.4890    -4.9890    -0.6410 hc         1 0EL       0.054367
     72 H21          9.2860    -4.9490     1.4070 hc         1 0EL       0.054367
     73 H22          8.6130    -6.4320     0.7330 hc         1 0EL       0.054367
     74 H23          9.2480    -5.1890    -0.3460 hc         1 0EL       0.054367
     75 H31          5.5570    -4.6190     1.8290 hc         1 0EL       0.054367
     76 H32          6.5410    -6.0620     2.0270 hc         1 0EL       0.054367
     77 H33          7.1070    -4.5300     2.6830 hc         1 0EL       0.054367
     78 H            8.1950    -1.0580     0.3610 hn         1 0EL       0.354500
     79 HA           5.8180    -0.0000     1.3230 h1         1 0EL       0.068700
     80 HB2          7.7870     1.3280    -0.5900 hc         1 0EL       0.073700
     81 HB3          6.6000     2.1480     0.4130 hc         1 0EL       0.073700
     82 HD1          9.9560     0.9260     0.2860 ha         1 0EL       0.130000
     83 HD2          6.7300     1.6810     2.9980 ha         1 0EL       0.130000
     84 HE1         11.5370     0.9060     2.1730 ha         1 0EL       0.140000
     85 HE2          8.3100     1.6660     4.8820 ha         1 0EL       0.140000
     86 HZ          10.7220     1.2730     4.4810 ha         1 0EL       0.142000
     87 H1           3.9220     0.4580     0.5730 hn         1 0EL       0.348500
     88 HA1          3.4530     0.9900    -2.2720 h1         1 0EL       0.088700
     89 HB21         1.8290    -0.9620    -0.5630 hc         1 0EL       0.099700
     90 HB31         1.2380    -0.2600    -2.0580 hc         1 0EL       0.099700
     91 HD11         4.2260    -2.4720    -0.9740 hn         1 0EL       0.400700
     92 HD21         1.8970    -1.5450    -4.3730 h4         1 0EL       0.223000
     93 HE11         4.9270    -4.0200    -2.8230 h5         1 0EL       0.244000
     94 HE21         3.5290    -3.4330    -4.8410 hn         1 0EL       0.355700
     95 H2           1.8670     2.5130    -2.5430 hn         1 0EL       0.315500
     96 HA2          0.7140     3.7510    -0.1330 h1         1 0EL       0.085700
     97 HB22         2.1510     5.1400    -1.5340 hc         1 0EL       0.048200
     98 HB32         1.1740     4.8140    -2.9520 hc         1 0EL       0.048200
     99 HG          -0.7340     6.0260    -1.9770 hc         1 0EL       0.059700
    100 HD12         1.8970     7.5450    -1.9230 hc         1 0EL       0.036700
    101 HD13         0.9220     7.2200    -3.3450 hc         1 0EL       0.036700
    102 HD23        -0.3420     5.6090     0.4400 hc         1 0EL       0.036700
    103 HD22         1.1370     6.5480     0.3690 hc         1 0EL       0.036700
    104 HE12         0.5290     9.5250    -2.4940 hc         1 0EL       0.041450
    105 HE13        -0.9370     8.5660    -2.4270 hc         1 0EL       0.041450
    106 HE23        -1.6950     7.5830    -0.1210 hc         1 0EL       0.041450
    107 HE22        -0.7080     7.9020     1.2920 hc         1 0EL       0.041450
    108 HZ2          0.9290     9.1430    -0.0820 hc         1 0EL       0.042200
    109 HZ3         -0.6720     9.8200    -0.3150 hc         1 0EL       0.042200
    110 HH          -1.4270     4.0560    -1.2020 h1         1 0EL       0.082700
    111 HO          -0.5990     2.4240    -3.3330 ho         1 0EL       0.398000
    112 HM1         -0.6310     1.1160    -1.2890 hc         1 0EL       0.056700
    113 HM2         -0.8540     2.0410     0.1640 hc         1 0EL       0.056700
    114 HA21        -3.2110     2.5720    -0.5790 hc         1 0EL       0.052700
    115 HB23        -4.3230     0.9750    -2.1130 hc         1 0EL       0.057200
    116 HB24        -3.2970     2.1580    -2.8620 hc         1 0EL       0.057200
    117 HG2         -1.5460     0.4480    -3.2400 hc         1 0EL       0.002700
    118 HD31        -3.5490    -1.5280    -2.0380 hc         1 0EL       0.044533
    119 HD32        -2.1440    -1.9660    -3.0040 hc         1 0EL       0.044533
    120 HD33        -1.9250    -1.1880    -1.4470 hc         1 0EL       0.044533
    121 HD41        -3.2700     0.9660    -4.9470 hc         1 0EL       0.044533
    122 HD42        -2.7730    -0.7240    -5.0260 hc         1 0EL       0.044533
    123 HD43        -4.3120    -0.2930    -4.2840 hc         1 0EL       0.044533
    124 H3          -4.9840     1.0610    -0.0610 hn         1 0EL       0.331500
    125 HA3         -4.1020    -1.3030     1.4390 h1         1 0EL       0.084700
    126 HB25        -6.2760     0.6220     2.3640 hc         1 0EL       0.066700
    127 HB33        -5.9560    -0.9560     3.0570 hc         1 0EL       0.066700
    128 HG21        -3.6130    -0.2130     3.6150 hc         1 0EL       0.057200
    129 HG3         -3.9820     1.3780     2.9810 hc         1 0EL       0.057200
    130 HD24        -5.8150     1.6260     4.6750 hc         1 0EL       0.065200
    131 HD3         -5.4170     0.0390     5.3230 hc         1 0EL       0.065200
    132 HE24        -3.1050     0.8490     5.8760 hx         1 0EL       0.103700
    133 HE3         -3.5190     2.4420     5.2370 hx         1 0EL       0.103700
    134 HZ1         -4.8410     1.1330     7.5250 hn         1 0EL       0.454133
    135 HZ21        -3.7520     2.3530     7.6040 hn         1 0EL       0.454133
    136 HZ31        -5.2220     2.6130     6.9290 hn         1 0EL       0.454133
    137 H4          -4.8720    -2.9420     0.3180 hn         1 0EL       0.332500
    138 HA4         -7.1940    -2.6810    -1.3980 h1         1 0EL       0.071700
    139 HB26        -8.2000    -4.7640    -0.6300 hc         1 0EL       0.063700
    140 HB34        -6.9620    -4.9750     0.6000 hc         1 0EL       0.063700
    141 HD14        -9.9170    -2.9690    -0.3780 ha         1 0EL       0.129500
    142 HD25        -7.0170    -3.7050     2.6750 ha         1 0EL       0.129500
    143 HE14       -11.2230    -1.5930     1.1900 ha         1 0EL       0.111500
    144 HE25        -8.3120    -2.3160     4.2440 ha         1 0EL       0.111500
    145 HZ4        -10.4200    -1.2470     3.5070 ha         1 0EL       0.112000
@<TRIPOS>BOND
     1     1     2 2   
     2     2     3 1   
     3     2     8 1   
     4     3     4 1   
     5     4     5 1   
     6     4     6 1   
     7     4     7 1   
     8     5    69 1   
     9     5    70 1   
    10     5    71 1   
    11     6    72 1   
    12     6    73 1   
    13     6    74 1   
    14     7    75 1   
    15     7    76 1   
    16     7    77 1   
    17     8     9 1   
    18     8    78 1   
    19     9    10 1   
    20     9    12 1   
    21     9    79 1   
    22    10    11 2   
    23    10    19 1   
    24    12    13 1   
    25    12    80 1   
    26    12    81 1   
    27    13    14 ar  
    28    13    15 ar  
    29    14    16 ar  
    30    14    82 1   
    31    15    17 ar  
    32    15    83 1   
    33    16    18 ar  
    34    16    84 1   
    35    17    18 ar  
    36    17    85 1   
    37    18    86 1   
    38    19    20 1   
    39    19    87 1   
    40    20    21 1   
    41    20    23 1   
    42    20    88 1   
    43    21    22 2   
    44    21    29 1   
    45    23    24 1   
    46    23    89 1   
    47    23    90 1   
    48    24    25 1   
    49    24    26 2   
    50    25    27 2   
    51    25    91 1   
    52    26    28 1   
    53    26    92 1   
    54    27    28 1   
    55    27    93 1   
    56    28    94 1   
    57    29    30 1   
    58    29    95 1   
    59    30    31 1   
    60    30    38 1   
    61    30    96 1   
    62    31    32 1   
    63    31    97 1   
    64    31    98 1   
    65    32    33 1   
    66    32    34 1   
    67    32    99 1   
    68    33    35 1   
    69    33   100 1   
    70    33   101 1   
    71    34    36 1   
    72    34   102 1   
    73    34   103 1   
    74    35    37 1   
    75    35   104 1   
    76    35   105 1   
    77    36    37 1   
    78    36   106 1   
    79    36   107 1   
    80    37   108 1   
    81    37   109 1   
    82    38    39 1   
    83    38    40 1   
    84    38   110 1   
    85    39   111 1   
    86    40    41 1   
    87    40   112 1   
    88    40   113 1   
    89    41    42 1   
    90    41    46 1   
    91    41   114 1   
    92    42    43 1   
    93    42   115 1   
    94    42   116 1   
    95    43    44 1   
    96    43    45 1   
    97    43   117 1   
    98    44   118 1   
    99    44   119 1   
   100    44   120 1   
   101    45   121 1   
   102    45   122 1   
   103    45   123 1   
   104    46    47 2   
   105    46    48 1   
   106    48    49 1   
   107    48   124 1   
   108    49    50 1   
   109    49    52 1   
   110    49   125 1   
   111    50    51 2   
   112    50    57 1   
   113    52    53 1   
   114    52   126 1   
   115    52   127 1   
   116    53    54 1   
   117    53   128 1   
   118    53   129 1   
   119    54    55 1   
   120    54   130 1   
   121    54   131 1   
   122    55    56 1   
   123    55   132 1   
   124    55   133 1   
   125    56   134 1   
   126    56   135 1   
   127    56   136 1   
   128    57    58 1   
   129    57   137 1   
   130    58    59 1   
   131    58    61 1   
   132    58   138 1   
   133    59    60 1   
   134    59    68 1   
   135    61    62 1   
   136    61   139 1   
   137    61   140 1   
   138    62    63 ar  
   139    62    64 ar  
   140    63    65 ar  
   141    63   141 1   
   142    64    66 ar  
   143    64   142 1   
   144    65    67 ar  
   145    65   143 1   
   146    66    67 ar  
   147    66   144 1   
   148    67   145 1   
@<TRIPOS>SUBSTRUCTURE
     1 0EL         1 TEMP              0 ****  ****    0 ROOT
