@<TRIPOS>MOLECULE
0EM
   97    98     1     0     0
SMALL
No Charge or Current Charge


@<TRIPOS>ATOM
      1 O1           6.2710    -0.3620     1.5080 o          1 0EM      -0.521000
      2 C            6.2110    -0.6180     0.3170 c          1 0EM       0.638100
      3 O2           7.2090    -1.1120    -0.4770 os         1 0EM      -0.504100
      4 CT           8.5590    -1.3050     0.0070 c3         1 0EM       0.221000
      5 C1           8.5640    -2.3660     1.1390 c3         1 0EM      -0.109767
      6 C2           9.3310    -1.8410    -1.2190 c3         1 0EM      -0.109767
      7 C3           9.1490     0.0590     0.4490 c3         1 0EM      -0.109767
      8 N            5.0970    -0.4670    -0.4560 ns         1 0EM      -0.515900
      9 CA           3.8300     0.1560    -0.0120 c3         1 0EM       0.043700
     10 C4           2.6120    -0.5520    -0.6710 c          1 0EM       0.583100
     11 O            2.7100    -1.2820    -1.6510 o          1 0EM      -0.619100
     12 CB           3.8220     1.6800    -0.3140 c3         1 0EM      -0.041100
     13 CG           5.0060     2.4260     0.2950 ca         1 0EM      -0.092300
     14 CD1          6.1430     2.7190    -0.4860 ca         1 0EM      -0.100500
     15 CD2          4.9790     2.8150     1.6490 ca         1 0EM      -0.100500
     16 CE1          7.2400     3.3890     0.0820 ca         1 0EM      -0.107500
     17 CE2          6.0770     3.4860     2.2160 ca         1 0EM      -0.107500
     18 CZ           7.2080     3.7730     1.4330 ca         1 0EM      -0.104000
     19 N1           1.3940    -0.2970    -0.0710 ns         1 0EM      -0.489900
     20 CA1          0.0950    -0.8750    -0.4970 c3         1 0EM       0.013700
     21 C5          -1.0280     0.1940    -0.3900 c          1 0EM       0.596100
     22 O3          -0.9040     1.2270     0.2580 o          1 0EM      -0.579100
     23 CB1         -0.2500    -2.1370     0.3380 c3         1 0EM      -0.062100
     24 CG1          0.7900    -3.2240     0.2480 cc         1 0EM      -0.074300
     25 ND1          1.7370    -3.4930     1.2420 na         1 0EM      -0.109700
     26 CD21         0.9990    -4.1200    -0.7820 cd         1 0EM      -0.162000
     27 CE11         2.5400    -4.5420     0.8240 cc         1 0EM      -0.071300
     28 NE2          2.0690    -4.9050    -0.4100 na         1 0EM      -0.065000
     29 N2          -2.1840    -0.1030    -1.0930 ns         1 0EM      -0.457900
     30 CA2         -3.4130     0.7440    -1.1160 c3         1 0EM      -0.237300
     31 CB2         -4.0260     0.8250    -2.5430 c3         1 0EM      -0.052400
     32 CG2         -3.3160     1.7930    -3.5340 c3         1 0EM      -0.062700
     33 CD11        -1.8490     1.4090    -3.8470 c3         1 0EM      -0.083100
     34 CD22        -4.1290     1.9250    -4.8430 c3         1 0EM      -0.083100
     35 P           -4.6680     0.2820     0.2030 p5         1 0EM       1.368000
     36 O1P         -3.9720    -0.2350     1.4210 o          1 0EM      -0.813000
     37 O2P         -5.6690    -0.6780    -0.3530 o          1 0EM      -0.813000
     38 CM          -5.4580     1.8600     0.5500 c3         1 0EM      -0.523400
     39 C6          -6.5930     1.5170     1.4550 c          1 0EM       0.638100
     40 O4          -6.4500     1.3690     2.6560 o          1 0EM      -0.629100
     41 N3          -7.8180     1.4720     0.8380 ns         1 0EM      -0.517900
     42 CA3         -9.0960     1.2190     1.5110 c3         1 0EM       0.108000
     43 CB3         -9.5920    -0.2440     1.3670 c3         1 0EM      -0.083700
     44 CG11       -11.0590    -0.3660     1.8640 c3         1 0EM      -0.073400
     45 CG21        -8.6460    -1.2530     2.0690 c3         1 0EM      -0.092100
     46 CD12       -11.7260    -1.7340     1.6000 c3         1 0EM      -0.084100
     47 H11          7.9780    -3.2460     0.8500 hc         1 0EM       0.052367
     48 H12          9.5890    -2.6950     1.3480 hc         1 0EM       0.052367
     49 H13          8.1560    -1.9690     2.0750 hc         1 0EM       0.052367
     50 H21          9.2970    -1.1210    -2.0460 hc         1 0EM       0.052367
     51 H22         10.3830    -2.0220    -0.9690 hc         1 0EM       0.052367
     52 H23          8.8980    -2.7860    -1.5700 hc         1 0EM       0.052367
     53 H31          8.7010     0.4190     1.3810 hc         1 0EM       0.052367
     54 H32         10.2290    -0.0290     0.6200 hc         1 0EM       0.052367
     55 H33          8.9910     0.8200    -0.3250 hc         1 0EM       0.052367
     56 H            5.1840    -0.7660    -1.4190 hn         1 0EM       0.324500
     57 HA           3.7300     0.0120     1.0720 h1         1 0EM       0.100700
     58 HB2          3.8090     1.8240    -1.4010 hc         1 0EM       0.071700
     59 HB3          2.8860     2.1180     0.0540 hc         1 0EM       0.071700
     60 HD1          6.1800     2.4180    -1.5310 ha         1 0EM       0.111000
     61 HD2          4.1100     2.5920     2.2640 ha         1 0EM       0.111000
     62 HE1          8.1160     3.6080    -0.5250 ha         1 0EM       0.115000
     63 HE2          6.0510     3.7820     3.2620 ha         1 0EM       0.115000
     64 HZ           8.0580     4.2900     1.8720 ha         1 0EM       0.115000
     65 H1           1.3910     0.3580     0.7050 hn         1 0EM       0.351500
     66 HA1          0.1610    -1.1580    -1.5560 h1         1 0EM       0.089700
     67 HB21        -0.4010    -1.8440     1.3860 hc         1 0EM       0.124200
     68 HB31        -1.2150    -2.5400     0.0050 hc         1 0EM       0.124200
     69 HD11         1.8240    -3.0030     2.1290 hn         1 0EM       0.414000
     70 HD21         0.4800    -4.2390    -1.7290 h4         1 0EM       0.209000
     71 HE11         3.3700    -4.9890     1.3660 h5         1 0EM       0.229000
     72 HE21         2.4570    -5.6550    -0.9770 hn         1 0EM       0.400000
     73 H2          -2.1900    -0.9790    -1.6060 hn         1 0EM       0.304500
     74 HA2         -3.1430     1.7610    -0.8080 h1         1 0EM       0.091700
     75 HB22        -4.0780    -0.1820    -2.9780 hc         1 0EM       0.045700
     76 HB32        -5.0660     1.1630    -2.4510 hc         1 0EM       0.045700
     77 HG          -3.2990     2.7870    -3.0690 hc         1 0EM       0.045700
     78 HD12        -1.2110     1.5350    -2.9650 hc         1 0EM       0.028033
     79 HD13        -1.7790     0.3690    -4.1870 hc         1 0EM       0.028033
     80 HD14        -1.4390     2.0540    -4.6340 hc         1 0EM       0.028033
     81 HD22        -5.1510     2.2620    -4.6340 hc         1 0EM       0.028033
     82 HD23        -3.6660     2.6570    -5.5160 hc         1 0EM       0.028033
     83 HD24        -4.1840     0.9630    -5.3670 hc         1 0EM       0.028033
     84 HM1         -4.7130     2.4850     1.0490 hc         1 0EM       0.078200
     85 HM2         -5.7860     2.2630    -0.4120 hc         1 0EM       0.078200
     86 HN2         -7.8230     1.6260    -0.1620 hn         1 0EM       0.339500
     87 HA11        -9.0140     1.4790     2.5750 h1         1 0EM       0.045700
     88 HA21        -9.8400     1.8950     1.0670 h1         1 0EM       0.045700
     89 HB          -9.5910    -0.4820     0.2950 hc         1 0EM       0.042700
     90 HG11       -11.1010    -0.1510     2.9390 hc         1 0EM       0.033700
     91 HG12       -11.6650     0.4040     1.3690 hc         1 0EM       0.033700
     92 HG21        -8.6250    -1.0780     3.1520 hc         1 0EM       0.042367
     93 HG22        -8.9640    -2.2860     1.8930 hc         1 0EM       0.042367
     94 HG23        -7.6230    -1.1640     1.6890 hc         1 0EM       0.042367
     95 HD15       -12.7870    -1.6960     1.8730 hc         1 0EM       0.025700
     96 HD25       -11.6560    -2.0020     0.5390 hc         1 0EM       0.025700
     97 HD3        -11.2570    -2.5270     2.1930 hc         1 0EM       0.025700
@<TRIPOS>BOND
     1     1     2 2   
     2     2     3 1   
     3     2     8 1   
     4     3     4 1   
     5     4     5 1   
     6     4     6 1   
     7     4     7 1   
     8     5    47 1   
     9     5    48 1   
    10     5    49 1   
    11     6    50 1   
    12     6    51 1   
    13     6    52 1   
    14     7    53 1   
    15     7    54 1   
    16     7    55 1   
    17     8     9 1   
    18     8    56 1   
    19     9    10 1   
    20     9    12 1   
    21     9    57 1   
    22    10    11 2   
    23    10    19 1   
    24    12    13 1   
    25    12    58 1   
    26    12    59 1   
    27    13    14 ar  
    28    13    15 ar  
    29    14    16 ar  
    30    14    60 1   
    31    15    17 ar  
    32    15    61 1   
    33    16    18 ar  
    34    16    62 1   
    35    17    18 ar  
    36    17    63 1   
    37    18    64 1   
    38    19    20 1   
    39    19    65 1   
    40    20    21 1   
    41    20    23 1   
    42    20    66 1   
    43    21    22 2   
    44    21    29 1   
    45    23    24 1   
    46    23    67 1   
    47    23    68 1   
    48    24    25 1   
    49    24    26 2   
    50    25    27 2   
    51    25    69 1   
    52    26    28 1   
    53    26    70 1   
    54    27    28 1   
    55    27    71 1   
    56    28    72 1   
    57    29    30 1   
    58    29    73 1   
    59    30    31 1   
    60    30    35 1   
    61    30    74 1   
    62    31    32 1   
    63    31    75 1   
    64    31    76 1   
    65    32    33 1   
    66    32    34 1   
    67    32    77 1   
    68    33    78 1   
    69    33    79 1   
    70    33    80 1   
    71    34    81 1   
    72    34    82 1   
    73    34    83 1   
    74    35    36 1   
    75    35    37 1   
    76    35    38 1   
    77    38    39 1   
    78    38    84 1   
    79    38    85 1   
    80    39    40 2   
    81    39    41 1   
    82    41    42 1   
    83    41    86 1   
    84    42    43 1   
    85    42    87 1   
    86    42    88 1   
    87    43    44 1   
    88    43    45 1   
    89    43    89 1   
    90    44    46 1   
    91    44    90 1   
    92    44    91 1   
    93    45    92 1   
    94    45    93 1   
    95    45    94 1   
    96    46    95 1   
    97    46    96 1   
    98    46    97 1   
@<TRIPOS>SUBSTRUCTURE
     1 0EM         1 TEMP              0 ****  ****    0 ROOT
