@<TRIPOS>MOLECULE
0EM
   97    98     1     0     0
SMALL
abcg2


@<TRIPOS>ATOM
      1 O1           4.0240     0.2450     1.8780 o          1 0EM      -0.521000
      2 C            4.3140    -0.5550     1.0160 c          1 0EM       0.638100
      3 O2           4.8870    -1.7420     1.2080 os         1 0EM      -0.504100
      4 CT           5.3970    -2.1670     2.5030 c3         1 0EM       0.221000
      5 C1           4.2780    -2.2640     3.5330 c3         1 0EM      -0.109767
      6 C2           5.9490    -3.5570     2.2100 c3         1 0EM      -0.109767
      7 C3           6.5150    -1.2400     2.9600 c3         1 0EM      -0.109767
      8 N            4.0460    -0.3900    -0.3020 ns         1 0EM      -0.515900
      9 CA           3.5150     0.8380    -0.8420 c3         1 0EM       0.043700
     10 C4           2.3080     0.4530    -1.6920 c          1 0EM       0.583100
     11 O            2.4480    -0.1600    -2.7380 o          1 0EM      -0.619100
     12 CB           4.5620     1.6010    -1.6610 c3         1 0EM      -0.041100
     13 CG           5.7860     1.8790    -0.8370 ca         1 0EM      -0.092300
     14 CD1          6.8680     1.0030    -0.8520 ca         1 0EM      -0.100500
     15 CD2          5.8380     2.9850     0.0080 ca         1 0EM      -0.100500
     16 CE1          7.9730     1.2210    -0.0390 ca         1 0EM      -0.107500
     17 CE2          6.9420     3.2110     0.8180 ca         1 0EM      -0.107500
     18 CZ           8.0120     2.3260     0.8000 ca         1 0EM      -0.104000
     19 N1           1.1160     0.7760    -1.1640 ns         1 0EM      -0.489900
     20 CA1         -0.1400     0.3800    -1.7350 c3         1 0EM       0.013700
     21 C5          -1.1520     1.5180    -1.6190 c          1 0EM       0.596100
     22 O3          -0.9540     2.4790    -0.8940 o          1 0EM      -0.579100
     23 CB1         -0.7190    -0.8690    -1.0240 c3         1 0EM      -0.062100
     24 CG1          0.2770    -1.9660    -0.9660 cc         1 0EM      -0.074300
     25 ND1          1.1900    -2.0980     0.0530 na         1 0EM      -0.109700
     26 CD21         0.5640    -2.9590    -1.8450 cd         1 0EM      -0.162000
     27 CE11         2.0010    -3.1160    -0.1870 cc         1 0EM      -0.071300
     28 NE2          1.6320    -3.6470    -1.3360 na         1 0EM      -0.065000
     29 N2          -2.2530     1.3290    -2.3580 ns         1 0EM      -0.457900
     30 CA2         -3.5300     1.9710    -2.0970 c3         1 0EM      -0.237300
     31 CB2         -4.3400     2.1530    -3.3750 c3         1 0EM      -0.052400
     32 CG2         -3.9680     3.3610    -4.2390 c3         1 0EM      -0.062700
     33 CD11        -2.5300     3.3300    -4.7460 c3         1 0EM      -0.083100
     34 CD22        -4.9430     3.4650    -5.4090 c3         1 0EM      -0.083100
     35 P           -4.3440     0.8640    -0.8400 p5         1 0EM       1.368000
     36 O1P         -3.4850     0.8530     0.4050 o          1 0EM      -0.813000
     37 O2P         -4.6750    -0.4460    -1.5330 o          1 0EM      -0.813000
     38 CM          -5.9330     1.7300    -0.4560 c3         1 0EM      -0.523400
     39 C6          -6.6410     1.0910     0.7170 c          1 0EM       0.638100
     40 O4          -6.9890     1.7360     1.6980 o          1 0EM      -0.629100
     41 N3          -6.8730    -0.2270     0.5740 ns         1 0EM      -0.517900
     42 CA3         -7.4620    -1.0640     1.5920 c3         1 0EM       0.108000
     43 CB3         -6.4520    -1.9110     2.3740 c3         1 0EM      -0.083700
     44 CG11        -7.2210    -2.7970     3.3560 c3         1 0EM      -0.073400
     45 CG21        -5.4090    -1.0430     3.0680 c3         1 0EM      -0.092100
     46 CD12        -6.3560    -3.7860     4.1270 c3         1 0EM      -0.084100
     47 H11          3.4400    -2.8500     3.1510 hc         1 0EM       0.052367
     48 H12          4.6530    -2.7770     4.4190 hc         1 0EM       0.052367
     49 H13          3.9090    -1.2900     3.8420 hc         1 0EM       0.052367
     50 H21          6.7370    -3.5220     1.4560 hc         1 0EM       0.052367
     51 H22          6.3720    -3.9870     3.1170 hc         1 0EM       0.052367
     52 H23          5.1650    -4.2290     1.8580 hc         1 0EM       0.052367
     53 H31          6.1540    -0.2390     3.1870 hc         1 0EM       0.052367
     54 H32          6.9710    -1.6440     3.8650 hc         1 0EM       0.052367
     55 H33          7.2940    -1.1610     2.2000 hc         1 0EM       0.052367
     56 H            4.4280    -1.0590    -0.9540 hn         1 0EM       0.324500
     57 HA           3.2040     1.4560     0.0010 h1         1 0EM       0.100700
     58 HB2          4.8250     1.0170    -2.5460 hc         1 0EM       0.071700
     59 HB3          4.1120     2.5320    -2.0140 hc         1 0EM       0.071700
     60 HD1          6.8520     0.1420    -1.5090 ha         1 0EM       0.111000
     61 HD2          5.0050     3.6780     0.0310 ha         1 0EM       0.111000
     62 HE1          8.8030     0.5270    -0.0640 ha         1 0EM       0.115000
     63 HE2          6.9660     4.0790     1.4650 ha         1 0EM       0.115000
     64 HZ           8.8740     2.5000     1.4320 ha         1 0EM       0.115000
     65 H1           1.0840     1.3350    -0.3240 hn         1 0EM       0.351500
     66 HA1          0.0220     0.1380    -2.7870 h1         1 0EM       0.089700
     67 HB21        -1.0500    -0.5990    -0.0190 hc         1 0EM       0.124200
     68 HB31        -1.6030    -1.2170    -1.5560 hc         1 0EM       0.124200
     69 HD11         1.2270    -1.5180     0.8790 hn         1 0EM       0.414000
     70 HD21         0.1060    -3.2190    -2.7830 h4         1 0EM       0.209000
     71 HE11         2.8070    -3.4590     0.4380 h5         1 0EM       0.229000
     72 HE21         2.0760    -4.4470    -1.7640 hn         1 0EM       0.400000
     73 H2          -2.2980     0.4900    -2.9170 hn         1 0EM       0.304500
     74 HA2         -3.3350     2.9450    -1.6400 h1         1 0EM       0.091700
     75 HB22        -4.2860     1.2370    -3.9760 hc         1 0EM       0.045700
     76 HB32        -5.3930     2.2600    -3.1030 hc         1 0EM       0.045700
     77 HG          -4.0880     4.2570    -3.6180 hc         1 0EM       0.045700
     78 HD12        -1.8030     3.4240    -3.9400 hc         1 0EM       0.028033
     79 HD13        -2.3200     2.3970    -5.2750 hc         1 0EM       0.028033
     80 HD14        -2.3530     4.1510    -5.4430 hc         1 0EM       0.028033
     81 HD22        -5.9770     3.5130    -5.0630 hc         1 0EM       0.028033
     82 HD23        -4.7510     4.3560    -6.0090 hc         1 0EM       0.028033
     83 HD24        -4.8540     2.5970    -6.0670 hc         1 0EM       0.028033
     84 HM1         -5.7460     2.7790    -0.2250 hc         1 0EM       0.078200
     85 HM2         -6.5850     1.6940    -1.3320 hc         1 0EM       0.078200
     86 HN2         -6.4520    -0.6850    -0.2240 hn         1 0EM       0.339500
     87 HA11        -8.0150    -0.4260     2.2820 h1         1 0EM       0.045700
     88 HA21        -8.1900    -1.7240     1.1130 h1         1 0EM       0.045700
     89 HB          -5.9370    -2.5670     1.6610 hc         1 0EM       0.042700
     90 HG11        -7.7620    -2.1590     4.0630 hc         1 0EM       0.033700
     91 HG12        -7.9860    -3.3540     2.8050 hc         1 0EM       0.033700
     92 HG21        -5.8840    -0.3570     3.7740 hc         1 0EM       0.042367
     93 HG22        -4.6950    -1.6510     3.6240 hc         1 0EM       0.042367
     94 HG23        -4.8380    -0.4510     2.3520 hc         1 0EM       0.042367
     95 HD15        -6.9710    -4.4480     4.7370 hc         1 0EM       0.025700
     96 HD25        -5.7710    -4.4110     3.4490 hc         1 0EM       0.025700
     97 HD3         -5.6570    -3.2840     4.7960 hc         1 0EM       0.025700
@<TRIPOS>BOND
     1     1     2 2   
     2     2     3 1   
     3     2     8 1   
     4     3     4 1   
     5     4     5 1   
     6     4     6 1   
     7     4     7 1   
     8     5    47 1   
     9     5    48 1   
    10     5    49 1   
    11     6    50 1   
    12     6    51 1   
    13     6    52 1   
    14     7    53 1   
    15     7    54 1   
    16     7    55 1   
    17     8     9 1   
    18     8    56 1   
    19     9    10 1   
    20     9    12 1   
    21     9    57 1   
    22    10    11 2   
    23    10    19 1   
    24    12    13 1   
    25    12    58 1   
    26    12    59 1   
    27    13    14 ar  
    28    13    15 ar  
    29    14    16 ar  
    30    14    60 1   
    31    15    17 ar  
    32    15    61 1   
    33    16    18 ar  
    34    16    62 1   
    35    17    18 ar  
    36    17    63 1   
    37    18    64 1   
    38    19    20 1   
    39    19    65 1   
    40    20    21 1   
    41    20    23 1   
    42    20    66 1   
    43    21    22 2   
    44    21    29 1   
    45    23    24 1   
    46    23    67 1   
    47    23    68 1   
    48    24    25 1   
    49    24    26 2   
    50    25    27 2   
    51    25    69 1   
    52    26    28 1   
    53    26    70 1   
    54    27    28 1   
    55    27    71 1   
    56    28    72 1   
    57    29    30 1   
    58    29    73 1   
    59    30    31 1   
    60    30    35 1   
    61    30    74 1   
    62    31    32 1   
    63    31    75 1   
    64    31    76 1   
    65    32    33 1   
    66    32    34 1   
    67    32    77 1   
    68    33    78 1   
    69    33    79 1   
    70    33    80 1   
    71    34    81 1   
    72    34    82 1   
    73    34    83 1   
    74    35    36 1   
    75    35    37 1   
    76    35    38 1   
    77    38    39 1   
    78    38    84 1   
    79    38    85 1   
    80    39    40 2   
    81    39    41 1   
    82    41    42 1   
    83    41    86 1   
    84    42    43 1   
    85    42    87 1   
    86    42    88 1   
    87    43    44 1   
    88    43    45 1   
    89    43    89 1   
    90    44    46 1   
    91    44    90 1   
    92    44    91 1   
    93    45    92 1   
    94    45    93 1   
    95    45    94 1   
    96    46    95 1   
    97    46    96 1   
    98    46    97 1   
@<TRIPOS>SUBSTRUCTURE
     1 0EM         1 TEMP              0 ****  ****    0 ROOT
