@<TRIPOS>MOLECULE
0EN
   63    65     1     0     0
SMALL
No Charge or Current Charge


@<TRIPOS>ATOM
      1 O1          -0.0710    -3.2040     0.4730 o          1 0EN      -0.566100
      2 C1          -0.7400    -2.2560     0.0700 c          1 0EN       0.550600
      3 C4          -2.1840    -2.4780    -0.3040 cc         1 0EN       0.056500
      4 C5          -2.8460    -3.6690    -0.1380 cd         1 0EN      -0.108000
      5 C6          -4.1540    -3.4970    -0.6320 cd         1 0EN      -0.200000
      6 C7          -4.2460    -2.2150    -1.0950 cc         1 0EN       0.139900
      7 O3          -3.0400    -1.5780    -0.9120 os         1 0EN      -0.232000
      8 N1          -0.1330    -0.9580    -0.0700 n          1 0EN      -0.221400
      9 C8           1.2930    -0.7910     0.0920 ca         1 0EN      -0.057000
     10 C9           2.0900    -0.4490    -1.0150 ca         1 0EN      -0.093500
     11 C10          3.4880    -0.3900    -0.9010 ca         1 0EN      -0.108500
     12 C11          4.1400    -0.7200     0.3100 ca         1 0EN      -0.054300
     13 C14          5.6880    -0.6330     0.3960 c3         1 0EN       0.000300
     14 C15          6.1380     0.8180     0.0770 c3         1 0EN      -0.082767
     15 C16          6.2420    -1.0060     1.8010 c3         1 0EN      -0.082767
     16 C17          6.3130    -1.6070    -0.6390 c3         1 0EN      -0.082767
     17 C12          3.3320    -1.1430     1.3950 ca         1 0EN      -0.108500
     18 C13          1.9330    -1.2000     1.2760 ca         1 0EN      -0.093500
     19 C2          -0.9420     0.2710    -0.3810 c3         1 0EN       0.102000
     20 C3          -2.0390     0.5620     0.6850 c          1 0EN       0.598100
     21 N2          -2.9840     1.4960     0.2890 ns         1 0EN      -0.504900
     22 C23         -4.1400     1.9750     1.0560 c3         1 0EN       0.139400
     23 C24         -3.6760     2.6850     2.3520 c3         1 0EN      -0.103767
     24 C25         -4.8840     2.9930     0.1610 c3         1 0EN      -0.103767
     25 C26         -5.0940     0.8010     1.3870 c3         1 0EN      -0.103767
     26 O2          -2.0450     0.0370     1.7920 o          1 0EN      -0.589100
     27 C18         -0.1240     1.5560    -0.5780 ca         1 0EN      -0.162300
     28 C19          0.0060     2.1420    -1.8510 ca         1 0EN      -0.060000
     29 C20          0.7580     3.3210    -1.9670 ca         1 0EN      -0.169000
     30 C21          1.3450     3.8790    -0.8190 ca         1 0EN       0.346900
     31 N3           1.2200     3.3300     0.4100 nb         1 0EN      -0.663000
     32 C22          0.5010     2.1890     0.5200 ca         1 0EN       0.368900
     33 H1          -2.4330    -4.5750     0.2980 ha         1 0EN       0.158000
     34 H2          -4.9460    -4.2400    -0.6500 ha         1 0EN       0.146000
     35 H3          -5.0530    -1.6590    -1.5530 h4         1 0EN       0.053100
     36 H4           1.6250    -0.2200    -1.9710 ha         1 0EN       0.127500
     37 H5           4.0650    -0.0930    -1.7720 ha         1 0EN       0.113500
     38 H6           5.6740     1.5280     0.7720 hc         1 0EN       0.035589
     39 H7           7.2270     0.9200     0.1650 hc         1 0EN       0.035589
     40 H8           5.8620     1.1140    -0.9420 hc         1 0EN       0.035589
     41 H9           5.9900    -2.0400     2.0640 hc         1 0EN       0.035589
     42 H10          7.3350    -0.9180     1.8260 hc         1 0EN       0.035589
     43 H11          5.8400    -0.3400     2.5740 hc         1 0EN       0.035589
     44 H12          6.0340    -1.3410    -1.6650 hc         1 0EN       0.035589
     45 H13          7.4080    -1.5910    -0.5810 hc         1 0EN       0.035589
     46 H14          5.9790    -2.6350    -0.4540 hc         1 0EN       0.035589
     47 H15          3.7670    -1.4400     2.3440 ha         1 0EN       0.113500
     48 H16          1.3410    -1.5410     2.1220 ha         1 0EN       0.127500
     49 H17         -1.4550     0.0940    -1.3320 h1         1 0EN       0.072700
     50 H18         -2.8590     1.8780    -0.6410 hn         1 0EN       0.309500
     51 H19         -2.9580     3.4820     2.1240 hc         1 0EN       0.044922
     52 H20         -4.5290     3.1370     2.8730 hc         1 0EN       0.044922
     53 H21         -3.1990     1.9870     3.0490 hc         1 0EN       0.044922
     54 H22         -5.2210     2.5240    -0.7710 hc         1 0EN       0.044922
     55 H23         -5.7660     3.3950     0.6740 hc         1 0EN       0.044922
     56 H24         -4.2320     3.8370    -0.0990 hc         1 0EN       0.044922
     57 H25         -4.6270     0.0760     2.0630 hc         1 0EN       0.044922
     58 H26         -6.0050     1.1680     1.8760 hc         1 0EN       0.044922
     59 H27         -5.3910     0.2710     0.4740 hc         1 0EN       0.044922
     60 H28         -0.4570     1.6950    -2.7290 ha         1 0EN       0.119000
     61 H29          0.8870     3.8050    -2.9310 ha         1 0EN       0.126000
     62 H30          1.9310     4.7950    -0.8850 h4         1 0EN       0.021100
     63 H31          0.4230     1.7680     1.5230 h4         1 0EN       0.036100
@<TRIPOS>BOND
     1     1     2 2   
     2     2     3 1   
     3     2     8 1   
     4     3     4 2   
     5     3     7 1   
     6     4     5 1   
     7     4    33 1   
     8     5     6 2   
     9     5    34 1   
    10     6     7 1   
    11     6    35 1   
    12     8     9 1   
    13     8    19 1   
    14     9    10 ar  
    15     9    18 ar  
    16    10    11 ar  
    17    10    36 1   
    18    11    12 ar  
    19    11    37 1   
    20    12    13 1   
    21    12    17 ar  
    22    13    14 1   
    23    13    15 1   
    24    13    16 1   
    25    14    38 1   
    26    14    39 1   
    27    14    40 1   
    28    15    41 1   
    29    15    42 1   
    30    15    43 1   
    31    16    44 1   
    32    16    45 1   
    33    16    46 1   
    34    17    18 ar  
    35    17    47 1   
    36    18    48 1   
    37    19    20 1   
    38    19    27 1   
    39    19    49 1   
    40    20    21 1   
    41    20    26 2   
    42    21    22 1   
    43    21    50 1   
    44    22    23 1   
    45    22    24 1   
    46    22    25 1   
    47    23    51 1   
    48    23    52 1   
    49    23    53 1   
    50    24    54 1   
    51    24    55 1   
    52    24    56 1   
    53    25    57 1   
    54    25    58 1   
    55    25    59 1   
    56    27    28 ar  
    57    27    32 ar  
    58    28    29 ar  
    59    28    60 1   
    60    29    30 ar  
    61    29    61 1   
    62    30    31 ar  
    63    30    62 1   
    64    31    32 ar  
    65    32    63 1   
@<TRIPOS>SUBSTRUCTURE
     1 0EN         1 TEMP              0 ****  ****    0 ROOT
