@<TRIPOS>MOLECULE
0EN
   63    65     1     0     0
SMALL
abcg2


@<TRIPOS>ATOM
      1 O1           0.0220    -3.2540    -0.7810 o          1 0EN      -0.566100
      2 C1          -0.7330    -2.2950    -0.7380 c          1 0EN       0.550600
      3 C4          -2.1680    -2.5500    -0.9510 cc         1 0EN       0.056500
      4 C5          -2.7440    -3.6590    -1.4910 cd         1 0EN      -0.108000
      5 C6          -4.1470    -3.4530    -1.4280 cd         1 0EN      -0.200000
      6 C7          -4.3190    -2.2400    -0.8460 cc         1 0EN       0.139900
      7 O3          -3.1320    -1.6880    -0.5560 os         1 0EN      -0.232000
      8 N1          -0.2690    -1.0360    -0.5110 n          1 0EN      -0.221400
      9 C8           1.1150    -0.9240    -0.1730 ca         1 0EN      -0.057000
     10 C9           2.0670    -0.7770    -1.1730 ca         1 0EN      -0.093500
     11 C10          3.4010    -0.6240    -0.8440 ca         1 0EN      -0.108500
     12 C11          3.8320    -0.6200     0.4860 ca         1 0EN      -0.054300
     13 C14          5.3100    -0.4220     0.8030 c3         1 0EN       0.000300
     14 C15          5.7360     0.9770     0.3370 c3         1 0EN      -0.082767
     15 C16          5.6040    -0.5460     2.2970 c3         1 0EN      -0.082767
     16 C17          6.1410    -1.4770     0.0610 c3         1 0EN      -0.082767
     17 C12          2.8630    -0.7840     1.4700 ca         1 0EN      -0.108500
     18 C13          1.5180    -0.9340     1.1490 ca         1 0EN      -0.093500
     19 C2          -1.0670     0.1800    -0.6260 c3         1 0EN       0.102000
     20 C3          -1.8540     0.4720     0.6660 c          1 0EN       0.598100
     21 N2          -2.8100     1.3910     0.4950 ns         1 0EN      -0.504900
     22 C23         -3.6670     1.9760     1.5340 c3         1 0EN       0.139400
     23 C24         -2.8220     2.7440     2.5510 c3         1 0EN      -0.103767
     24 C25         -4.5970     2.9470     0.8100 c3         1 0EN      -0.103767
     25 C26         -4.5020     0.9010     2.2290 c3         1 0EN      -0.103767
     26 O2          -1.5840    -0.0800     1.7180 o          1 0EN      -0.589100
     27 C18         -0.2110     1.3650    -1.0090 ca         1 0EN      -0.162300
     28 C19         -0.0610     1.7200    -2.3420 ca         1 0EN      -0.060000
     29 C20          0.7510     2.7940    -2.6680 ca         1 0EN      -0.169000
     30 C21          1.3810     3.4780    -1.6410 ca         1 0EN       0.346900
     31 N3           1.2380     3.1580    -0.3590 nb         1 0EN      -0.663000
     32 C22          0.4630     2.1270    -0.0590 ca         1 0EN       0.368900
     33 H1          -2.2280    -4.5170    -1.8890 ha         1 0EN       0.158000
     34 H2          -4.9240    -4.1180    -1.7650 ha         1 0EN       0.146000
     35 H3          -5.1950    -1.6690    -0.5830 h4         1 0EN       0.053100
     36 H4           1.7620    -0.7720    -2.2120 ha         1 0EN       0.127500
     37 H5           4.1150    -0.5070    -1.6490 ha         1 0EN       0.113500
     38 H6           5.1640     1.7540     0.8480 hc         1 0EN       0.035589
     39 H7           6.7940     1.1420     0.5510 hc         1 0EN       0.035589
     40 H8           5.5930     1.1090    -0.7360 hc         1 0EN       0.035589
     41 H9           5.3220    -1.5240     2.6910 hc         1 0EN       0.035589
     42 H10          6.6740    -0.4190     2.4710 hc         1 0EN       0.035589
     43 H11          5.0880     0.2170     2.8840 hc         1 0EN       0.035589
     44 H12          6.0230    -1.4060    -1.0210 hc         1 0EN       0.035589
     45 H13          7.2020    -1.3470     0.2810 hc         1 0EN       0.035589
     46 H14          5.8570    -2.4870     0.3630 hc         1 0EN       0.035589
     47 H15          3.1370    -0.7940     2.5160 ha         1 0EN       0.113500
     48 H16          0.7810    -1.0400     1.9330 ha         1 0EN       0.127500
     49 H17         -1.7830     0.0450    -1.4390 h1         1 0EN       0.072700
     50 H18         -2.9340     1.7560    -0.4370 hn         1 0EN       0.309500
     51 H19         -2.2010     3.4920     2.0540 hc         1 0EN       0.044922
     52 H20         -3.4710     3.2620     3.2590 hc         1 0EN       0.044922
     53 H21         -2.1720     2.0810     3.1190 hc         1 0EN       0.044922
     54 H22         -5.2270     2.4290     0.0850 hc         1 0EN       0.044922
     55 H23         -5.2510     3.4460     1.5250 hc         1 0EN       0.044922
     56 H24         -4.0320     3.7190     0.2830 hc         1 0EN       0.044922
     57 H25         -3.8820     0.2100     2.7960 hc         1 0EN       0.044922
     58 H26         -5.2030     1.3720     2.9210 hc         1 0EN       0.044922
     59 H27         -5.0810     0.3270     1.5040 hc         1 0EN       0.044922
     60 H28         -0.5700     1.1610    -3.1180 ha         1 0EN       0.119000
     61 H29          0.8910     3.0990    -3.6960 ha         1 0EN       0.126000
     62 H30          2.0220     4.3250    -1.8600 h4         1 0EN       0.021100
     63 H31          0.3750     1.8900     0.9960 h4         1 0EN       0.036100
@<TRIPOS>BOND
     1     1     2 2   
     2     2     3 1   
     3     2     8 1   
     4     3     4 2   
     5     3     7 1   
     6     4     5 1   
     7     4    33 1   
     8     5     6 2   
     9     5    34 1   
    10     6     7 1   
    11     6    35 1   
    12     8     9 1   
    13     8    19 1   
    14     9    10 ar  
    15     9    18 ar  
    16    10    11 ar  
    17    10    36 1   
    18    11    12 ar  
    19    11    37 1   
    20    12    13 1   
    21    12    17 ar  
    22    13    14 1   
    23    13    15 1   
    24    13    16 1   
    25    14    38 1   
    26    14    39 1   
    27    14    40 1   
    28    15    41 1   
    29    15    42 1   
    30    15    43 1   
    31    16    44 1   
    32    16    45 1   
    33    16    46 1   
    34    17    18 ar  
    35    17    47 1   
    36    18    48 1   
    37    19    20 1   
    38    19    27 1   
    39    19    49 1   
    40    20    21 1   
    41    20    26 2   
    42    21    22 1   
    43    21    50 1   
    44    22    23 1   
    45    22    24 1   
    46    22    25 1   
    47    23    51 1   
    48    23    52 1   
    49    23    53 1   
    50    24    54 1   
    51    24    55 1   
    52    24    56 1   
    53    25    57 1   
    54    25    58 1   
    55    25    59 1   
    56    27    28 ar  
    57    27    32 ar  
    58    28    29 ar  
    59    28    60 1   
    60    29    30 ar  
    61    29    61 1   
    62    30    31 ar  
    63    30    62 1   
    64    31    32 ar  
    65    32    63 1   
@<TRIPOS>SUBSTRUCTURE
     1 0EN         1 TEMP              0 ****  ****    0 ROOT
