@<TRIPOS>MOLECULE
0EO
   99   100     1     0     0
SMALL
bcc


@<TRIPOS>ATOM
      1 O1          -5.4440    -0.8680     1.0580 o          1 0EO      -0.592000
      2 C           -5.2300     0.2850     1.3710 c          1 0EO       0.768100
      3 O2          -5.4970     0.8310     2.5570 os         1 0EO      -0.456900
      4 CT          -6.2180     0.1280     3.6020 c3         1 0EO       0.202800
      5 C1          -5.4440    -1.0910     4.0900 c3         1 0EO      -0.108767
      6 C2          -6.2980     1.1640     4.7170 c3         1 0EO      -0.108767
      7 C3          -7.6210    -0.2380     3.1340 c3         1 0EO      -0.108767
      8 C4           0.3570    -0.4560    -0.4610 c          1 0EO       0.664100
      9 O11          0.2610    -0.7980     0.7100 o          1 0EO      -0.598100
     10 CA1         -0.5930     0.5460    -1.0820 c3         1 0EO      -0.157400
     11 CM          -2.0330     0.3230    -0.6360 c3         1 0EO      -0.101400
     12 CH          -3.0040     1.3240    -1.2500 c3         1 0EO       0.140100
     13 OH          -2.6590     2.6600    -0.9450 oh         1 0EO      -0.601800
     14 CA          -4.4530     1.0120    -0.8510 c3         1 0EO       0.091700
     15 N           -4.6490     1.2080     0.5680 ns         1 0EO      -0.564900
     16 CB          -5.4650     1.8430    -1.6540 c3         1 0EO      -0.053100
     17 CG          -6.8780     1.4840    -1.2950 ca         1 0EO      -0.080300
     18 CD1         -7.5780     2.1950    -0.3240 ca         1 0EO      -0.119000
     19 CD2         -7.5000     0.3880    -1.8900 ca         1 0EO      -0.119000
     20 CE1         -8.8620     1.8210     0.0490 ca         1 0EO      -0.127000
     21 CE2         -8.7840     0.0100    -1.5240 ca         1 0EO      -0.127000
     22 CZ          -9.4690     0.7250    -0.5490 ca         1 0EO      -0.130000
     23 N1           1.3200    -0.9120    -1.2840 ns         1 0EO      -0.577900
     24 CA2          2.3200    -1.8980    -0.9170 c3         1 0EO       0.075700
     25 CB1          2.3730    -2.9730    -2.0050 c3         1 0EO      -0.077400
     26 CG1          3.3690    -4.1090    -1.7690 c6         1 0EO      -0.059700
     27 CD11         3.3140    -5.1060    -2.9280 c6         1 0EO      -0.071900
     28 CD21         3.1280    -4.8350    -0.4450 c6         1 0EO      -0.071900
     29 CE11         4.2930    -6.2600    -2.7370 c6         1 0EO      -0.073900
     30 CE21         4.1000    -5.9940    -0.2470 c6         1 0EO      -0.073900
     31 CZ1          4.0510    -6.9760    -1.4130 c6         1 0EO      -0.073400
     32 CH1          3.6830    -1.2450    -0.6530 c3         1 0EO       0.140100
     33 OH1          4.2070    -0.6350    -1.8130 oh         1 0EO      -0.589800
     34 CM1          3.6470    -0.2630     0.5120 c3         1 0EO      -0.197400
     35 C5           5.0350     0.2690     0.8020 c          1 0EO       0.675100
     36 O            5.9880    -0.4870     0.9560 o          1 0EO      -0.619100
     37 N2           5.1470     1.6000     0.8490 ns         1 0EO      -0.522900
     38 CA3          6.3700     2.2640     1.2310 c3         1 0EO      -0.038300
     39 C6           6.6980     2.1060     2.7390 c          1 0EO       0.928600
     40 O3           5.7990     1.6950     3.4900 o          1 0EO      -0.828800
     41 CB2          6.2890     3.7460     0.8670 c3         1 0EO      -0.073400
     42 CG2          6.0180     4.0540    -0.6090 c3         1 0EO      -0.062700
     43 CD12         5.9560     5.5650    -0.8140 c3         1 0EO      -0.083600
     44 CD22         7.0590     3.4260    -1.5280 c3         1 0EO      -0.083600
     45 OXT          7.8570     2.4420     3.0580 o          1 0EO      -0.828800
     46 H11         -4.4210    -0.8230     4.3580 hc         1 0EO       0.048811
     47 H12         -5.9270    -1.4820     4.9860 hc         1 0EO       0.048811
     48 H13         -5.4120    -1.8890     3.3520 hc         1 0EO       0.048811
     49 H21         -6.8310     2.0580     4.3900 hc         1 0EO       0.048811
     50 H22         -6.8350     0.7500     5.5710 hc         1 0EO       0.048811
     51 H23         -5.3050     1.4600     5.0580 hc         1 0EO       0.048811
     52 H31         -7.6170    -0.9930     2.3520 hc         1 0EO       0.048811
     53 H32         -8.1910    -0.6290     3.9780 hc         1 0EO       0.048811
     54 H33         -8.1460     0.6400     2.7550 hc         1 0EO       0.048811
     55 HA1         -0.2550     1.5410    -0.7780 hc         1 0EO       0.059200
     56 HM          -2.3530    -0.6830    -0.9220 hc         1 0EO       0.068700
     57 HA          -4.6310    -0.0430    -1.0670 h1         1 0EO       0.088700
     58 H           -4.6460     2.1590     0.9030 hn         1 0EO       0.315500
     59 HB2         -5.2860     2.9070    -1.4740 hc         1 0EO       0.058700
     60 HB3         -5.2900     1.6670    -2.7180 hc         1 0EO       0.058700
     61 HD1         -7.1170     3.0570     0.1460 ha         1 0EO       0.127500
     62 HD2         -6.9710    -0.1780    -2.6490 ha         1 0EO       0.127500
     63 HE1         -9.3900     2.3860     0.8060 ha         1 0EO       0.127500
     64 HE2         -9.2520    -0.8420    -2.0010 ha         1 0EO       0.127500
     65 HZ         -10.4710     0.4330    -0.2610 ha         1 0EO       0.126000
     66 HCH         -2.9470     1.2440    -2.3410 h1         1 0EO       0.067700
     67 HO1         -2.4770     2.7220    -0.0010 ho         1 0EO       0.411000
     68 HM1         -2.0980     0.3710     0.4540 hc         1 0EO       0.068700
     69 HA2         -0.5260     0.5190    -2.1720 hc         1 0EO       0.059200
     70 H1           1.2850    -0.6260    -2.2500 hn         1 0EO       0.303500
     71 HA3          1.9870    -2.3510     0.0180 h1         1 0EO       0.087700
     72 HB21         1.3690    -3.4000    -2.0990 hc         1 0EO       0.037700
     73 HB31         2.5990    -2.5040    -2.9680 hc         1 0EO       0.037700
     74 HG           4.3850    -3.6920    -1.7490 hc         1 0EO       0.068700
     75 HD12         2.2960    -5.5050    -3.0060 hc         1 0EO       0.037450
     76 HD13         3.5180    -4.5900    -3.8710 hc         1 0EO       0.037450
     77 HD23         3.2150    -4.1430     0.3980 hc         1 0EO       0.037450
     78 HD22         2.0970    -5.2110    -0.4300 hc         1 0EO       0.037450
     79 HE12         4.2110    -6.9620    -3.5700 hc         1 0EO       0.039700
     80 HE13         5.3180    -5.8730    -2.7570 hc         1 0EO       0.039700
     81 HE23         5.1160    -5.5940    -0.1550 hc         1 0EO       0.039700
     82 HE22         3.8840    -6.5060     0.6940 hc         1 0EO       0.039700
     83 HZ2          3.0710    -7.4640    -1.4380 hc         1 0EO       0.032200
     84 HZ3          4.7890    -7.7690    -1.2700 hc         1 0EO       0.032200
     85 HH           4.3850    -2.0410    -0.3940 h1         1 0EO       0.101700
     86 HO           3.6990     0.1620    -1.9990 ho         1 0EO       0.390000
     87 HM11         2.9450     0.5500     0.3060 hc         1 0EO       0.061700
     88 HM2          3.2830    -0.7710     1.4090 hc         1 0EO       0.061700
     89 H2           4.3010     2.1470     0.8210 hn         1 0EO       0.287500
     90 HA4          7.1890     1.8120     0.6660 h1         1 0EO       0.062700
     91 HB22         5.5110     4.2210     1.4780 hc         1 0EO       0.048200
     92 HB32         7.2340     4.2100     1.1580 hc         1 0EO       0.048200
     93 HG1          5.0390     3.6420    -0.8780 hc         1 0EO       0.027700
     94 HD11         6.9130     6.0320    -0.5710 hc         1 0EO       0.024700
     95 HD14         5.7180     5.8150    -1.8490 hc         1 0EO       0.024700
     96 HD15         5.1940     6.0220    -0.1790 hc         1 0EO       0.024700
     97 HD21         7.0500     2.3370    -1.4690 hc         1 0EO       0.024700
     98 HD24         6.8750     3.6960    -2.5690 hc         1 0EO       0.024700
     99 HD25         8.0650     3.7650    -1.2700 hc         1 0EO       0.024700
@<TRIPOS>BOND
     1     1     2 2   
     2     2     3 1   
     3     2    15 1   
     4     3     4 1   
     5     4     5 1   
     6     4     6 1   
     7     4     7 1   
     8     5    46 1   
     9     5    47 1   
    10     5    48 1   
    11     6    49 1   
    12     6    50 1   
    13     6    51 1   
    14     7    52 1   
    15     7    53 1   
    16     7    54 1   
    17     8     9 2   
    18     8    10 1   
    19     8    23 1   
    20    10    11 1   
    21    10    55 1   
    22    10    69 1   
    23    11    12 1   
    24    11    56 1   
    25    11    68 1   
    26    12    13 1   
    27    12    14 1   
    28    12    66 1   
    29    13    67 1   
    30    14    15 1   
    31    14    16 1   
    32    14    57 1   
    33    15    58 1   
    34    16    17 1   
    35    16    59 1   
    36    16    60 1   
    37    17    18 ar  
    38    17    19 ar  
    39    18    20 ar  
    40    18    61 1   
    41    19    21 ar  
    42    19    62 1   
    43    20    22 ar  
    44    20    63 1   
    45    21    22 ar  
    46    21    64 1   
    47    22    65 1   
    48    23    24 1   
    49    23    70 1   
    50    24    25 1   
    51    24    32 1   
    52    24    71 1   
    53    25    26 1   
    54    25    72 1   
    55    25    73 1   
    56    26    27 1   
    57    26    28 1   
    58    26    74 1   
    59    27    29 1   
    60    27    75 1   
    61    27    76 1   
    62    28    30 1   
    63    28    77 1   
    64    28    78 1   
    65    29    31 1   
    66    29    79 1   
    67    29    80 1   
    68    30    31 1   
    69    30    81 1   
    70    30    82 1   
    71    31    83 1   
    72    31    84 1   
    73    32    33 1   
    74    32    34 1   
    75    32    85 1   
    76    33    86 1   
    77    34    35 1   
    78    34    87 1   
    79    34    88 1   
    80    35    36 2   
    81    35    37 1   
    82    37    38 1   
    83    37    89 1   
    84    38    39 1   
    85    38    41 1   
    86    38    90 1   
    87    39    40 1   
    88    39    45 1   
    89    41    42 1   
    90    41    91 1   
    91    41    92 1   
    92    42    43 1   
    93    42    44 1   
    94    42    93 1   
    95    43    94 1   
    96    43    95 1   
    97    43    96 1   
    98    44    97 1   
    99    44    98 1   
   100    44    99 1   
@<TRIPOS>SUBSTRUCTURE
     1 0EO         1 TEMP              0 ****  ****    0 ROOT
