@<TRIPOS>MOLECULE
0EO
   99   100     1     0     0
SMALL
No Charge or Current Charge


@<TRIPOS>ATOM
      1 O1          -5.3890    -1.2150     0.5770 o          1 0EO      -0.543000
      2 C           -5.5200    -0.2870     1.3580 c          1 0EO       0.652100
      3 O2          -6.0570    -0.3300     2.6140 os         1 0EO      -0.480100
      4 CT          -6.6420    -1.5320     3.1670 c3         1 0EO       0.226000
      5 C1          -5.5550    -2.6300     3.3000 c3         1 0EO      -0.108767
      6 C2          -7.1340    -1.1060     4.5680 c3         1 0EO      -0.108767
      7 C3          -7.8470    -1.9680     2.2930 c3         1 0EO      -0.108767
      8 C4           0.2860     0.7660     0.5360 c          1 0EO       0.597100
      9 O11          0.4870     0.3990     1.6850 o          1 0EO      -0.598100
     10 CA1         -0.7790     1.8080     0.1820 c3         1 0EO      -0.157400
     11 CM          -2.2080     1.2090     0.2560 c3         1 0EO      -0.101400
     12 CH          -3.3330     2.1930    -0.1580 c3         1 0EO       0.163300
     13 OH          -3.3510     3.3020     0.7580 oh         1 0EO      -0.664000
     14 CA          -4.7350     1.5100    -0.2160 c3         1 0EO       0.091700
     15 N           -5.1740     1.0070     1.0960 ns         1 0EO      -0.497900
     16 CB          -5.8340     2.4090    -0.8370 c3         1 0EO      -0.053100
     17 CG          -7.1820     1.6970    -0.9290 ca         1 0EO      -0.080300
     18 CD1         -8.1950     1.9620     0.0140 ca         1 0EO      -0.101000
     19 CD2         -7.4110     0.7440    -1.9410 ca         1 0EO      -0.101000
     20 CE1         -9.4230     1.2800    -0.0540 ca         1 0EO      -0.109000
     21 CE2         -8.6390     0.0640    -2.0090 ca         1 0EO      -0.109000
     22 CZ          -9.6450     0.3310    -1.0650 ca         1 0EO      -0.112000
     23 N1           1.0160     0.2950    -0.5340 ns         1 0EO      -0.510900
     24 CA2          2.0710    -0.7330    -0.4540 c3         1 0EO       0.075700
     25 CB1          1.8740    -1.7480    -1.6140 c3         1 0EO      -0.077400
     26 CG1          2.8460    -2.9720    -1.6630 c6         1 0EO      -0.059700
     27 CD11         2.5250    -3.8730    -2.8900 c6         1 0EO      -0.071900
     28 CD21         2.8180    -3.8170    -0.3550 c6         1 0EO      -0.071900
     29 CE11         3.4820    -5.0870    -2.9750 c6         1 0EO      -0.073900
     30 CE21         3.7700    -5.0360    -0.4420 c6         1 0EO      -0.073900
     31 CZ1          3.4460    -5.9180    -1.6700 c6         1 0EO      -0.073400
     32 CH1          3.5040    -0.1090    -0.3830 c3         1 0EO       0.163300
     33 OH1          3.7620     0.6770    -1.5550 oh         1 0EO      -0.652000
     34 CM1          3.7270     0.7800     0.8580 c3         1 0EO      -0.197400
     35 C5           5.2110     1.0780     1.0530 c          1 0EO       0.608100
     36 O            5.9950     0.2300     1.4590 o          1 0EO      -0.619100
     37 N2           5.5850     2.3790     0.7910 ns         1 0EO      -0.455900
     38 CA3          6.9670     2.9160     0.8640 c3         1 0EO      -0.038300
     39 C6           6.9670     4.2990     1.5870 c          1 0EO       0.718000
     40 O3           6.2250     5.1790     1.1700 o          1 0EO      -0.723500
     41 CB2          7.6170     3.0170    -0.5440 c3         1 0EO      -0.073400
     42 CG2          7.8680     1.6700    -1.2800 c3         1 0EO      -0.062700
     43 CD12         8.2870     1.9120    -2.7480 c3         1 0EO      -0.083600
     44 CD22         8.9100     0.7800    -0.5600 c3         1 0EO      -0.083600
     45 OXT          7.6570     4.4250     2.5900 o          1 0EO      -0.723500
     46 H11         -4.6490    -2.2270     3.7670 hc         1 0EO       0.048811
     47 H12         -5.9200    -3.4540     3.9250 hc         1 0EO       0.048811
     48 H13         -5.2830    -3.0580     2.3290 hc         1 0EO       0.048811
     49 H21         -7.8700    -0.2970     4.4930 hc         1 0EO       0.048811
     50 H22         -7.6060    -1.9480     5.0880 hc         1 0EO       0.048811
     51 H23         -6.2980    -0.7520     5.1840 hc         1 0EO       0.048811
     52 H31         -7.5270    -2.3980     1.3390 hc         1 0EO       0.048811
     53 H32         -8.4380    -2.7320     2.8120 hc         1 0EO       0.048811
     54 H33         -8.5040    -1.1150     2.0840 hc         1 0EO       0.048811
     55 HA1         -0.7030     2.6360     0.8960 hc         1 0EO       0.059200
     56 HM          -2.2530     0.3330    -0.4050 hc         1 0EO       0.068700
     57 HA          -4.6280     0.6490    -0.8900 h1         1 0EO       0.088700
     58 H           -5.3880     1.6700     1.8280 hn         1 0EO       0.315500
     59 HB2         -5.9320     3.3270    -0.2450 hc         1 0EO       0.058700
     60 HB3         -5.5140     2.7260    -1.8370 hc         1 0EO       0.058700
     61 HD1         -8.0290     2.6880     0.8060 ha         1 0EO       0.109500
     62 HD2         -6.6350     0.5250    -2.6710 ha         1 0EO       0.109500
     63 HE1        -10.2000     1.4860     0.6790 ha         1 0EO       0.109500
     64 HE2         -8.8100    -0.6730    -2.7910 ha         1 0EO       0.109500
     65 HZ         -10.5950    -0.1980    -1.1170 ha         1 0EO       0.108000
     66 HCH         -3.1030     2.5550    -1.1700 h1         1 0EO       0.067700
     67 HO1         -3.3230     2.9240     1.6620 ho         1 0EO       0.450000
     68 HM1         -2.3940     0.8370     1.2720 hc         1 0EO       0.068700
     69 HA2         -0.6120     2.1820    -0.8360 hc         1 0EO       0.059200
     70 H1           0.7430     0.6350    -1.4480 hn         1 0EO       0.303500
     71 HA3          1.9170    -1.2870     0.4820 h1         1 0EO       0.087700
     72 HB21         0.8430    -2.1210    -1.5590 hc         1 0EO       0.037700
     73 HB31         1.9400    -1.2030    -2.5640 hc         1 0EO       0.037700
     74 HG           3.8600    -2.5720    -1.8020 hc         1 0EO       0.068700
     75 HD12         1.4870    -4.2290    -2.8310 hc         1 0EO       0.037450
     76 HD13         2.6000    -3.2860    -3.8160 hc         1 0EO       0.037450
     77 HD23         3.1130    -3.2030     0.5060 hc         1 0EO       0.037450
     78 HD22         1.7940    -4.1630    -0.1560 hc         1 0EO       0.037450
     79 HE12         3.2050    -5.7210    -3.8280 hc         1 0EO       0.039700
     80 HE13         4.5070    -4.7390    -3.1650 hc         1 0EO       0.039700
     81 HE23         4.8110    -4.6880    -0.5010 hc         1 0EO       0.039700
     82 HE22         3.6940    -5.6340     0.4760 hc         1 0EO       0.039700
     83 HZ2          2.4540    -6.3740    -1.5480 hc         1 0EO       0.032200
     84 HZ3          4.1650    -6.7460    -1.7350 hc         1 0EO       0.032200
     85 HH           4.2250    -0.9370    -0.3190 h1         1 0EO       0.101700
     86 HO           2.9950     1.2770    -1.6640 ho         1 0EO       0.429000
     87 HM11         3.1580     1.7110     0.7490 hc         1 0EO       0.061700
     88 HM2          3.3740     0.2330     1.7400 hc         1 0EO       0.061700
     89 H2           4.8500     3.0070     0.4890 hn         1 0EO       0.287500
     90 HA4          7.5720     2.2460     1.4860 h1         1 0EO       0.062700
     91 HB22         6.9800     3.6530    -1.1710 hc         1 0EO       0.048200
     92 HB32         8.5750     3.5450    -0.4490 hc         1 0EO       0.048200
     93 HG1          6.9220     1.1150    -1.3100 hc         1 0EO       0.027700
     94 HD11         9.2310     2.4670    -2.7990 hc         1 0EO       0.024700
     95 HD14         8.4180     0.9600    -3.2770 hc         1 0EO       0.024700
     96 HD15         7.5200     2.4890    -3.2800 hc         1 0EO       0.024700
     97 HD21         8.5810     0.5170     0.4520 hc         1 0EO       0.024700
     98 HD24         9.0630    -0.1560    -1.1100 hc         1 0EO       0.024700
     99 HD25         9.8750     1.2940    -0.4840 hc         1 0EO       0.024700
@<TRIPOS>BOND
     1     1     2 2   
     2     2     3 1   
     3     2    15 1   
     4     3     4 1   
     5     4     5 1   
     6     4     6 1   
     7     4     7 1   
     8     5    46 1   
     9     5    47 1   
    10     5    48 1   
    11     6    49 1   
    12     6    50 1   
    13     6    51 1   
    14     7    52 1   
    15     7    53 1   
    16     7    54 1   
    17     8     9 2   
    18     8    10 1   
    19     8    23 1   
    20    10    11 1   
    21    10    55 1   
    22    10    69 1   
    23    11    12 1   
    24    11    56 1   
    25    11    68 1   
    26    12    13 1   
    27    12    14 1   
    28    12    66 1   
    29    13    67 1   
    30    14    15 1   
    31    14    16 1   
    32    14    57 1   
    33    15    58 1   
    34    16    17 1   
    35    16    59 1   
    36    16    60 1   
    37    17    18 ar  
    38    17    19 ar  
    39    18    20 ar  
    40    18    61 1   
    41    19    21 ar  
    42    19    62 1   
    43    20    22 ar  
    44    20    63 1   
    45    21    22 ar  
    46    21    64 1   
    47    22    65 1   
    48    23    24 1   
    49    23    70 1   
    50    24    25 1   
    51    24    32 1   
    52    24    71 1   
    53    25    26 1   
    54    25    72 1   
    55    25    73 1   
    56    26    27 1   
    57    26    28 1   
    58    26    74 1   
    59    27    29 1   
    60    27    75 1   
    61    27    76 1   
    62    28    30 1   
    63    28    77 1   
    64    28    78 1   
    65    29    31 1   
    66    29    79 1   
    67    29    80 1   
    68    30    31 1   
    69    30    81 1   
    70    30    82 1   
    71    31    83 1   
    72    31    84 1   
    73    32    33 1   
    74    32    34 1   
    75    32    85 1   
    76    33    86 1   
    77    34    35 1   
    78    34    87 1   
    79    34    88 1   
    80    35    36 2   
    81    35    37 1   
    82    37    38 1   
    83    37    89 1   
    84    38    39 1   
    85    38    41 1   
    86    38    90 1   
    87    39    40 1   
    88    39    45 1   
    89    41    42 1   
    90    41    91 1   
    91    41    92 1   
    92    42    43 1   
    93    42    44 1   
    94    42    93 1   
    95    43    94 1   
    96    43    95 1   
    97    43    96 1   
    98    44    97 1   
    99    44    98 1   
   100    44    99 1   
@<TRIPOS>SUBSTRUCTURE
     1 0EO         1 TEMP              0 ****  ****    0 ROOT
