@<TRIPOS>MOLECULE
0ER
   37    38     1     0     0
SMALL
No Charge or Current Charge


@<TRIPOS>ATOM
      1 C14         28.9400    -3.9130     6.7280 c          1 0ER       0.635300
      2 C5          30.8030    -7.4010     5.7320 c3         1 0ER       0.157900
      3 C6          26.6940    -5.5530     4.0390 ca         1 0ER       0.186100
      4 C11         27.2210    -3.0090     5.1200 ca         1 0ER       0.122100
      5 C8          25.9480    -4.4370     3.6070 ca         1 0ER      -0.089300
      6 C9          24.8500    -4.5830     2.5560 c3         1 0ER      -0.035800
      7 C10         26.2310    -3.1690     4.1420 ca         1 0ER      -0.075000
      8 C13         27.9530    -4.1230     5.5930 ca         1 0ER      -0.126600
      9 C1          27.7190    -5.4060     5.0050 ca         1 0ER      -0.192600
     10 C15         29.0450    -4.8880     7.8710 ca         1 0ER      -0.330600
     11 C16         30.3020    -5.1510     8.4510 ca         1 0ER       0.250100
     12 C18         30.4330    -6.0910     9.4790 ca         1 0ER      -0.255000
     13 C19         29.3080    -6.7680     9.9670 ca         1 0ER       0.014000
     14 C2          28.5610    -6.6050     5.3630 c          1 0ER       0.627700
     15 C20         28.0470    -6.4820     9.4270 ca         1 0ER      -0.255000
     16 C21         27.9130    -5.5460     8.3920 ca         1 0ER       0.250100
     17 O17         31.4170    -4.5020     8.0240 oh         1 0ER      -0.531100
     18 O22         26.6660    -5.2600     7.9360 oh         1 0ER      -0.531100
     19 O23         29.6700    -2.9250     6.7200 o          1 0ER      -0.574100
     20 O3          28.1100    -7.7440     5.3690 o          1 0ER      -0.534000
     21 O4          29.8980    -6.3220     5.4390 os         1 0ER      -0.427100
     22 O7          26.4220    -6.7820     3.5040 oh         1 0ER      -0.545100
     23 H1          31.8350    -7.0310     5.7790 h1         1 0ER       0.053700
     24 H2          30.5630    -7.8600     6.7000 h1         1 0ER       0.053700
     25 H3          30.7540    -8.1770     4.9570 h1         1 0ER       0.053700
     26 H4          24.0720    -5.2780     2.8950 hc         1 0ER       0.048700
     27 H5          24.3620    -3.6260     2.3360 hc         1 0ER       0.048700
     28 H6          25.2570    -4.9690     1.6140 hc         1 0ER       0.048700
     29 H7          25.6740    -2.2980     3.8050 ha         1 0ER       0.134000
     30 H8          31.4120    -6.2920     9.9060 ha         1 0ER       0.129500
     31 H9          29.4110    -7.4960    10.7700 ha         1 0ER       0.117000
     32 H10         27.1740    -6.9930     9.8260 ha         1 0ER       0.129500
     33 H11         28.3100    -1.7790     6.1020 ho         1 0ER       0.471000
     34 H12         31.1030    -3.7520     7.4640 ho         1 0ER       0.498000
     35 H13         26.0240    -5.7870     8.4550 ho         1 0ER       0.498000
     36 H14         26.9110    -7.4500     4.0430 ho         1 0ER       0.513000
     37 O12         27.4560    -1.7540     5.6090 oh         1 0ER      -0.538100
@<TRIPOS>BOND
     1     1     8 1   
     2     1    10 1   
     3     1    19 2   
     4     2    21 1   
     5     2    23 1   
     6     2    24 1   
     7     2    25 1   
     8     3     5 ar  
     9     3     9 ar  
    10     3    22 1   
    11     4     7 ar  
    12     4     8 ar  
    13     4    37 1   
    14     5     6 1   
    15     5     7 ar  
    16     6    26 1   
    17     6    27 1   
    18     6    28 1   
    19     7    29 1   
    20     8     9 ar  
    21     9    14 1   
    22    10    11 ar  
    23    10    16 ar  
    24    11    12 ar  
    25    11    17 1   
    26    12    13 ar  
    27    12    30 1   
    28    13    15 ar  
    29    13    31 1   
    30    14    20 2   
    31    14    21 1   
    32    15    16 ar  
    33    15    32 1   
    34    16    18 1   
    35    17    34 1   
    36    18    35 1   
    37    22    36 1   
    38    33    37 1   
@<TRIPOS>SUBSTRUCTURE
     1 0ER         1 TEMP              0 ****  ****    0 ROOT
