@<TRIPOS>MOLECULE
0ER
   37    38     1     0     0
SMALL
abcg2


@<TRIPOS>ATOM
      1 C14         29.2240    -4.3990     6.4570 c          1 0ER       0.635300
      2 C5          30.5500    -7.8110     5.6230 c3         1 0ER       0.157900
      3 C6          26.7350    -5.5310     3.7670 ca         1 0ER       0.186100
      4 C11         27.2310    -3.3600     5.4550 ca         1 0ER       0.122100
      5 C8          25.8950    -4.4050     3.7150 ca         1 0ER      -0.089300
      6 C9          24.7450    -4.3710     2.7560 c3         1 0ER      -0.035800
      7 C10         26.1600    -3.3490     4.5550 ca         1 0ER      -0.075000
      8 C13         28.0550    -4.4670     5.5170 ca         1 0ER      -0.126600
      9 C1          27.8170    -5.5590     4.6560 ca         1 0ER      -0.192600
     10 C15         29.1790    -4.9380     7.8110 ca         1 0ER      -0.330600
     11 C16         30.3100    -4.7450     8.6520 ca         1 0ER       0.250100
     12 C18         30.3230    -5.2450     9.9520 ca         1 0ER      -0.255000
     13 C19         29.2250    -5.9350    10.4220 ca         1 0ER       0.014000
     14 C2          28.6550    -6.7660     4.6780 c          1 0ER       0.627700
     15 C20         28.1040    -6.1470     9.6320 ca         1 0ER      -0.255000
     16 C21         28.0770    -5.6580     8.3330 ca         1 0ER       0.250100
     17 O17         31.3870    -4.0900     8.2390 oh         1 0ER      -0.531100
     18 O22         27.0170    -5.8540     7.5460 oh         1 0ER      -0.531100
     19 O23         30.1960    -3.7550     6.0580 o          1 0ER      -0.574100
     20 O3          28.4310    -7.7560     4.0010 o          1 0ER      -0.534000
     21 O4          29.6790    -6.6850     5.4950 os         1 0ER      -0.427100
     22 O7          26.4430    -6.5350     2.9340 oh         1 0ER      -0.545100
     23 H1          31.2960    -7.5220     6.3560 h1         1 0ER       0.053700
     24 H2          30.0090    -8.6870     5.9770 h1         1 0ER       0.053700
     25 H3          31.0360    -8.0400     4.6760 h1         1 0ER       0.053700
     26 H4          24.0520    -5.1950     2.9290 hc         1 0ER       0.048700
     27 H5          24.1890    -3.4400     2.8520 hc         1 0ER       0.048700
     28 H6          25.0850    -4.4520     1.7220 hc         1 0ER       0.048700
     29 H7          25.5220    -2.4740     4.5260 ha         1 0ER       0.134000
     30 H8          31.1940    -5.0860    10.5740 ha         1 0ER       0.129500
     31 H9          29.2350    -6.3240    11.4320 ha         1 0ER       0.117000
     32 H10         27.2560    -6.6950    10.0240 ha         1 0ER       0.129500
     33 H11         28.1660    -2.2490     6.7500 ho         1 0ER       0.471000
     34 H12         31.2200    -3.8000     7.3090 ho         1 0ER       0.498000
     35 H13         26.3370    -6.3590     8.0110 ho         1 0ER       0.498000
     36 H14         27.0820    -7.2610     3.0980 ho         1 0ER       0.513000
     37 O12         27.3520    -2.2600     6.2350 oh         1 0ER      -0.538100
@<TRIPOS>BOND
     1     1     8 1   
     2     1    10 1   
     3     1    19 2   
     4     2    21 1   
     5     2    23 1   
     6     2    24 1   
     7     2    25 1   
     8     3     5 ar  
     9     3     9 ar  
    10     3    22 1   
    11     4     7 ar  
    12     4     8 ar  
    13     4    37 1   
    14     5     6 1   
    15     5     7 ar  
    16     6    26 1   
    17     6    27 1   
    18     6    28 1   
    19     7    29 1   
    20     8     9 ar  
    21     9    14 1   
    22    10    11 ar  
    23    10    16 ar  
    24    11    12 ar  
    25    11    17 1   
    26    12    13 ar  
    27    12    30 1   
    28    13    15 ar  
    29    13    31 1   
    30    14    20 2   
    31    14    21 1   
    32    15    16 ar  
    33    15    32 1   
    34    16    18 1   
    35    17    34 1   
    36    18    35 1   
    37    22    36 1   
    38    33    37 1   
@<TRIPOS>SUBSTRUCTURE
     1 0ER         1 TEMP              0 ****  ****    0 ROOT
