@<TRIPOS>MOLECULE
0EU
   72    76     1     0     0
SMALL
No Charge or Current Charge


@<TRIPOS>ATOM
      1 C1           2.9490     3.0890    -1.0320 ca         1 0EU      -0.011800
      2 C2           2.2250     3.9420    -1.8890 ca         1 0EU      -0.078000
      3 C3           2.4470     5.3310    -1.8230 ca         1 0EU      -0.108000
      4 C4           3.3730     5.8590    -0.9000 ca         1 0EU      -0.114000
      5 C5           4.0740     4.9990    -0.0350 ca         1 0EU      -0.072000
      6 C6           3.8420     3.6170    -0.1190 ca         1 0EU      -0.210000
      7 S7           4.6120     2.4000     0.9250 ss         1 0EU       0.169400
      8 C8           3.7390     1.1090     0.0410 cc         1 0EU       0.152200
      9 N9           3.9820    -0.2560     0.1690 ns         1 0EU      -0.416100
     10 C10          4.8030    -0.9010     1.0590 c          1 0EU       0.653100
     11 O10          5.4690    -0.3470     1.9160 o          1 0EU      -0.616100
     12 N11          4.7950    -2.2610     0.8920 ns         1 0EU      -0.514900
     13 C14          2.8690     1.6360    -0.9140 cd         1 0EU      -0.242400
     14 C15          2.0340     0.7990    -1.8350 c          1 0EU       0.629300
     15 N15          1.4880    -0.4040    -1.3180 n          1 0EU      -0.406800
     16 O15          1.8090     1.1290    -2.9920 o          1 0EU      -0.580100
     17 C16          0.9170    -1.4390    -2.2100 c6         1 0EU       0.085500
     18 C17         -0.6260    -1.3990    -2.2160 c6         1 0EU      -0.107900
     19 C18          0.9930    -0.5310     0.0780 c6         1 0EU       0.085500
     20 C19         -0.5510    -0.4820     0.1380 c6         1 0EU      -0.107900
     21 C20         -1.2320    -1.5440    -0.7840 c6         1 0EU       0.196500
     22 N20         -2.7370    -1.4150    -0.7850 n3         1 0EU      -0.727600
     23 C21         -3.3930    -2.3890    -1.7160 c6         1 0EU       0.166800
     24 C22         -4.9270    -2.2230    -1.7610 c6         1 0EU      -0.075400
     25 C23         -5.5400    -2.2710    -0.3460 c6         1 0EU      -0.059400
     26 C24         -3.3290    -1.5590     0.5880 c6         1 0EU       0.182800
     27 C25         -4.8550    -1.2430     0.6100 c5         1 0EU      -0.157000
     28 C26         -5.4010    -1.3670     2.0520 c          1 0EU       0.659100
     29 O26         -5.0050    -2.1490     2.9050 o          1 0EU      -0.503000
     30 O27         -6.0750    -0.2240     2.3900 os         1 0EU      -0.425100
     31 C28         -5.1490     0.2570     0.2740 c5         1 0EU      -0.092400
     32 C29         -6.3150     0.6110     1.2440 c5         1 0EU       0.180000
     33 C30         -7.7340     0.2930     0.7010 c3         1 0EU      -0.096100
     34 C31         -6.2730     2.0890     1.6980 c3         1 0EU      -0.096100
     35 C35          5.5720    -3.1870     1.7150 c3         1 0EU       0.118000
     36 C36          5.2720    -4.6500     1.3520 c3         1 0EU      -0.114100
     37 H2           1.4960     3.5530    -2.5940 ha         1 0EU       0.127000
     38 H3           1.8970     6.0000    -2.4820 ha         1 0EU       0.112000
     39 H4           3.5390     6.9330    -0.8500 ha         1 0EU       0.112000
     40 H5           4.7800     5.4010     0.6890 ha         1 0EU       0.119000
     41 HN9          3.4890    -0.8680    -0.4640 hn         1 0EU       0.333500
     42 HN11         4.2200    -2.6450     0.1540 hn         1 0EU       0.316500
     43 H16          1.2950    -1.3140    -3.2350 h1         1 0EU       0.058700
     44 H16A         1.2520    -2.4280    -1.8660 h1         1 0EU       0.058700
     45 H17         -0.9670    -0.4590    -2.6710 hc         1 0EU       0.058950
     46 H17A        -0.9600    -2.2110    -2.8710 hc         1 0EU       0.058950
     47 H18          1.3430    -1.4830     0.5010 h1         1 0EU       0.058700
     48 H18A         1.3820     0.2760     0.7140 h1         1 0EU       0.058700
     49 H19         -0.8270    -0.6300     1.1870 hc         1 0EU       0.058950
     50 H19A        -0.8940     0.5230    -0.1430 hc         1 0EU       0.058950
     51 H20         -0.9570    -2.5400    -0.4060 h1         1 0EU       0.020700
     52 H21         -3.0420    -2.2580    -2.7480 h1         1 0EU       0.034200
     53 H21A        -3.1530    -3.4200    -1.4160 h1         1 0EU       0.034200
     54 H22         -5.1790    -1.2770    -2.2570 hc         1 0EU       0.048200
     55 H22A        -5.3630    -3.0170    -2.3820 hc         1 0EU       0.048200
     56 H23         -6.6200    -2.1050    -0.4160 hc         1 0EU       0.053700
     57 H23A        -5.4190    -3.2850     0.0620 hc         1 0EU       0.053700
     58 H24         -3.1530    -2.5760     0.9710 h1         1 0EU       0.046700
     59 H24A        -2.8630    -0.8690     1.3030 h1         1 0EU       0.046700
     60 H28         -4.2730     0.8830     0.4810 hc         1 0EU       0.070700
     61 H28A        -5.4080     0.4350    -0.7740 hc         1 0EU       0.070700
     62 H30         -8.5100     0.7440     1.3310 hc         1 0EU       0.048867
     63 H30A        -7.8660     0.6860    -0.3140 hc         1 0EU       0.048867
     64 H30B        -7.9420    -0.7810     0.6800 hc         1 0EU       0.048867
     65 H31         -5.3050     2.3390     2.1480 hc         1 0EU       0.048867
     66 H31A        -6.4310     2.7660     0.8500 hc         1 0EU       0.048867
     67 H31B        -7.0470     2.3020     2.4450 hc         1 0EU       0.048867
     68 H35          6.6410    -2.9830     1.5690 h1         1 0EU       0.055700
     69 H35A         5.3290    -3.0160     2.7730 h1         1 0EU       0.055700
     70 H36          4.2100    -4.8770     1.5060 hc         1 0EU       0.044700
     71 H36A         5.5240    -4.8480     0.3030 hc         1 0EU       0.044700
     72 H36B         5.8630    -5.3250     1.9810 hc         1 0EU       0.044700
@<TRIPOS>BOND
     1     1     2 ar  
     2     1     6 ar  
     3     1    13 1   
     4     2     3 ar  
     5     2    37 1   
     6     3     4 ar  
     7     3    38 1   
     8     4     5 ar  
     9     4    39 1   
    10     5     6 ar  
    11     5    40 1   
    12     6     7 1   
    13     7     8 1   
    14     8     9 1   
    15     8    13 2   
    16     9    10 1   
    17     9    41 1   
    18    10    11 2   
    19    10    12 1   
    20    12    35 1   
    21    12    42 1   
    22    13    14 1   
    23    14    15 1   
    24    14    16 2   
    25    15    17 1   
    26    15    19 1   
    27    17    18 1   
    28    17    43 1   
    29    17    44 1   
    30    18    21 1   
    31    18    45 1   
    32    18    46 1   
    33    19    20 1   
    34    19    47 1   
    35    19    48 1   
    36    20    21 1   
    37    20    49 1   
    38    20    50 1   
    39    21    22 1   
    40    21    51 1   
    41    22    23 1   
    42    22    26 1   
    43    23    24 1   
    44    23    52 1   
    45    23    53 1   
    46    24    25 1   
    47    24    54 1   
    48    24    55 1   
    49    25    27 1   
    50    25    56 1   
    51    25    57 1   
    52    26    27 1   
    53    26    58 1   
    54    26    59 1   
    55    27    28 1   
    56    27    31 1   
    57    28    29 2   
    58    28    30 1   
    59    30    32 1   
    60    31    32 1   
    61    31    60 1   
    62    31    61 1   
    63    32    33 1   
    64    32    34 1   
    65    33    62 1   
    66    33    63 1   
    67    33    64 1   
    68    34    65 1   
    69    34    66 1   
    70    34    67 1   
    71    35    36 1   
    72    35    68 1   
    73    35    69 1   
    74    36    70 1   
    75    36    71 1   
    76    36    72 1   
@<TRIPOS>SUBSTRUCTURE
     1 0EU         1 TEMP              0 ****  ****    0 ROOT
