@<TRIPOS>MOLECULE
0EU
   72    76     1     0     0
SMALL
abcg2


@<TRIPOS>ATOM
      1 C1           2.1040     2.4900    -0.7740 ca         1 0EU      -0.011800
      2 C2           1.1160     3.2130    -1.4530 ca         1 0EU      -0.078000
      3 C3           0.9680     4.5640    -1.2000 ca         1 0EU      -0.108000
      4 C4           1.7890     5.2200    -0.2770 ca         1 0EU      -0.114000
      5 C5           2.7710     4.5240     0.4050 ca         1 0EU      -0.072000
      6 C6           2.9180     3.1660     0.1460 ca         1 0EU      -0.210000
      7 S7           4.0790     2.1070     0.8940 ss         1 0EU       0.169400
      8 C8           3.4590     0.7550    -0.0140 cc         1 0EU       0.152200
      9 N9           4.0080    -0.4940     0.0990 ns         1 0EU      -0.416100
     10 C10          5.0500    -0.8200     0.9450 c          1 0EU       0.653100
     11 O10          5.5360     0.0150     1.6950 o          1 0EU      -0.616100
     12 N11          5.4500    -2.0970     0.8740 ns         1 0EU      -0.514900
     13 C14          2.4200     1.0890    -0.8380 cd         1 0EU      -0.242400
     14 C15          1.7640     0.1650    -1.7950 c          1 0EU       0.629300
     15 N15          1.3270    -1.0260    -1.3070 n          1 0EU      -0.406800
     16 O15          1.6730     0.4700    -2.9760 o          1 0EU      -0.580100
     17 C16          0.6850    -1.9680    -2.2090 c6         1 0EU       0.085500
     18 C17         -0.8260    -1.7830    -2.2190 c6         1 0EU      -0.107900
     19 C18          0.8470    -1.1940     0.0570 c6         1 0EU       0.085500
     20 C19         -0.6620    -0.9960     0.1350 c6         1 0EU      -0.107900
     21 C20         -1.4330    -1.9170    -0.8160 c6         1 0EU       0.196500
     22 N20         -2.8620    -1.5890    -0.8390 n3         1 0EU      -0.727600
     23 C21         -3.6380    -2.4650    -1.7060 c6         1 0EU       0.166800
     24 C22         -5.0620    -1.9580    -1.8700 c6         1 0EU      -0.075400
     25 C23         -5.7540    -1.7700    -0.5300 c6         1 0EU      -0.059400
     26 C24         -3.4810    -1.5690     0.4720 c6         1 0EU       0.182800
     27 C25         -4.8700    -0.9240     0.3970 c5         1 0EU      -0.157000
     28 C26         -5.4720    -0.8800     1.7850 c          1 0EU       0.659100
     29 O26         -5.5950    -1.8000     2.5520 o          1 0EU      -0.503000
     30 O27         -5.8740     0.3430     2.1020 os         1 0EU      -0.425100
     31 C28         -4.7950     0.5540     0.0070 c5         1 0EU      -0.092400
     32 C29         -5.6980     1.2880     1.0120 c5         1 0EU       0.180000
     33 C30         -7.0740     1.6040     0.4480 c3         1 0EU      -0.096100
     34 C31         -5.0480     2.5310     1.5880 c3         1 0EU      -0.096100
     35 C35          6.5650    -2.5950     1.6580 c3         1 0EU       0.118000
     36 C36          6.6890    -4.0980     1.4950 c3         1 0EU      -0.114100
     37 H2           0.4750     2.7240    -2.1730 ha         1 0EU       0.127000
     38 H3           0.2040     5.1230    -1.7240 ha         1 0EU       0.112000
     39 H4           1.6550     6.2770    -0.0930 ha         1 0EU       0.112000
     40 H5           3.4080     5.0260     1.1220 ha         1 0EU       0.119000
     41 HN9          3.6250    -1.2040    -0.5110 hn         1 0EU       0.333500
     42 HN11         5.0620    -2.7040     0.1690 hn         1 0EU       0.316500
     43 H16          1.0910    -1.8570    -3.2120 h1         1 0EU       0.058700
     44 H16A         0.9360    -2.9750    -1.8660 h1         1 0EU       0.058700
     45 H17         -1.0760    -0.7970    -2.6220 hc         1 0EU       0.058950
     46 H17A        -1.2380    -2.5240    -2.9040 hc         1 0EU       0.058950
     47 H18          1.1150    -2.1990     0.3930 h1         1 0EU       0.058700
     48 H18A         1.3340    -0.4930     0.7300 h1         1 0EU       0.058700
     49 H19         -0.9420    -1.1670     1.1750 hc         1 0EU       0.058950
     50 H19A        -0.9050     0.0460    -0.1000 hc         1 0EU       0.058950
     51 H20         -1.2780    -2.9580    -0.4770 h1         1 0EU       0.020700
     52 H21         -3.1820    -2.5160    -2.6940 h1         1 0EU       0.034200
     53 H21A        -3.6570    -3.4960    -1.3110 h1         1 0EU       0.034200
     54 H22         -5.0470    -1.0170    -2.4260 hc         1 0EU       0.048200
     55 H22A        -5.6250    -2.6690    -2.4790 hc         1 0EU       0.048200
     56 H23         -6.7360    -1.3110    -0.6690 hc         1 0EU       0.053700
     57 H23A        -5.9240    -2.7450    -0.0640 hc         1 0EU       0.053700
     58 H24         -3.5710    -2.5820     0.9000 h1         1 0EU       0.046700
     59 H24A        -2.8800    -0.9830     1.1650 h1         1 0EU       0.046700
     60 H28         -3.7670     0.9150     0.0810 hc         1 0EU       0.070700
     61 H28A        -5.1210     0.7440    -1.0150 hc         1 0EU       0.070700
     62 H30         -7.7200     2.0410     1.2100 hc         1 0EU       0.048867
     63 H30A        -6.9780     2.3230    -0.3650 hc         1 0EU       0.048867
     64 H30B        -7.5660     0.7160     0.0490 hc         1 0EU       0.048867
     65 H31         -4.0850     2.3000     2.0460 hc         1 0EU       0.048867
     66 H31A        -4.8750     3.2540     0.7900 hc         1 0EU       0.048867
     67 H31B        -5.6870     3.0050     2.3340 hc         1 0EU       0.048867
     68 H35          7.4950    -2.1100     1.3480 h1         1 0EU       0.055700
     69 H35A         6.4080    -2.3470     2.7080 h1         1 0EU       0.055700
     70 H36          5.7870    -4.6110     1.8290 hc         1 0EU       0.044700
     71 H36A         6.8750    -4.3730     0.4560 hc         1 0EU       0.044700
     72 H36B         7.5240    -4.4650     2.0890 hc         1 0EU       0.044700
@<TRIPOS>BOND
     1     1     2 ar  
     2     1     6 ar  
     3     1    13 1   
     4     2     3 ar  
     5     2    37 1   
     6     3     4 ar  
     7     3    38 1   
     8     4     5 ar  
     9     4    39 1   
    10     5     6 ar  
    11     5    40 1   
    12     6     7 1   
    13     7     8 1   
    14     8     9 1   
    15     8    13 2   
    16     9    10 1   
    17     9    41 1   
    18    10    11 2   
    19    10    12 1   
    20    12    35 1   
    21    12    42 1   
    22    13    14 1   
    23    14    15 1   
    24    14    16 2   
    25    15    17 1   
    26    15    19 1   
    27    17    18 1   
    28    17    43 1   
    29    17    44 1   
    30    18    21 1   
    31    18    45 1   
    32    18    46 1   
    33    19    20 1   
    34    19    47 1   
    35    19    48 1   
    36    20    21 1   
    37    20    49 1   
    38    20    50 1   
    39    21    22 1   
    40    21    51 1   
    41    22    23 1   
    42    22    26 1   
    43    23    24 1   
    44    23    52 1   
    45    23    53 1   
    46    24    25 1   
    47    24    54 1   
    48    24    55 1   
    49    25    27 1   
    50    25    56 1   
    51    25    57 1   
    52    26    27 1   
    53    26    58 1   
    54    26    59 1   
    55    27    28 1   
    56    27    31 1   
    57    28    29 2   
    58    28    30 1   
    59    30    32 1   
    60    31    32 1   
    61    31    60 1   
    62    31    61 1   
    63    32    33 1   
    64    32    34 1   
    65    33    62 1   
    66    33    63 1   
    67    33    64 1   
    68    34    65 1   
    69    34    66 1   
    70    34    67 1   
    71    35    36 1   
    72    35    68 1   
    73    35    69 1   
    74    36    70 1   
    75    36    71 1   
    76    36    72 1   
@<TRIPOS>SUBSTRUCTURE
     1 0EU         1 TEMP              0 ****  ****    0 ROOT
