@<TRIPOS>MOLECULE
0EV
   65    69     1     0     0
SMALL
No Charge or Current Charge


@<TRIPOS>ATOM
      1 C1          -0.5750     3.9290     0.6870 c3         1 0EV       0.161800
      2 N1          -0.9090     2.9400    -0.3560 n7         1 0EV      -0.867400
      3 C2          -1.5610     1.7100     0.1330 c3         1 0EV       0.161800
      4 C3          -1.8260     0.7330    -1.0300 c3         1 0EV      -0.017100
      5 C4          -2.4300    -0.5880    -0.5400 ca         1 0EV      -0.072300
      6 C5          -3.8350    -0.7730    -0.3800 ca         1 0EV       0.172400
      7 N2          -4.6930     0.3040    -0.6870 nc         1 0EV      -0.627100
      8 C6          -5.9890     0.0370    -0.5060 cd         1 0EV       0.494800
      9 N3          -6.5050    -1.1470    -0.0670 ns         1 0EV      -0.435400
     10 C7          -5.7670    -2.2300     0.2530 c          1 0EV       0.577600
     11 C8          -4.3080    -2.0320     0.0870 ca         1 0EV      -0.206600
     12 C9          -3.4140    -3.0870     0.3950 ca         1 0EV      -0.003000
     13 C10         -2.0430    -2.8690     0.2360 ca         1 0EV       0.095400
     14 C11         -1.5860    -1.6630    -0.2130 ca         1 0EV      -0.045200
     15 N4          -0.2260    -1.7660    -0.2490 na         1 0EV      -0.356600
     16 C12          0.0780    -3.0370     0.1790 cc         1 0EV       0.670700
     17 N5          -0.9970    -3.7570     0.4900 nd         1 0EV      -0.649100
     18 N6           1.3270    -3.5340     0.2890 nu         1 0EV      -0.905400
     19 C13          2.5860    -2.8110     0.0740 c3         1 0EV       0.227800
     20 O1          -6.2790    -3.2680     0.6430 o          1 0EV      -0.540000
     21 H1          -1.4930     4.2430     1.2040 h1         1 0EV       0.028700
     22 H2           0.0880     3.4790     1.4400 h1         1 0EV       0.028700
     23 H3          -1.5390     3.3910    -1.0300 hn         1 0EV       0.407000
     24 H5          -0.9210     1.2100     0.8730 h1         1 0EV       0.035200
     25 H6          -2.5150     1.9480     0.6240 h1         1 0EV       0.035200
     26 H7          -2.4810     1.2140    -1.7670 hc         1 0EV       0.054200
     27 H8          -0.8840     0.5460    -1.5590 hc         1 0EV       0.054200
     28 H9          -6.7560     0.7760    -0.7040 h5         1 0EV       0.043800
     29 H10         -7.5040    -1.2480     0.0360 hn         1 0EV       0.329500
     30 H11         -3.7720    -4.0490     0.7540 ha         1 0EV       0.152000
     31 H12          0.4420    -1.0670    -0.5300 hn         1 0EV       0.362000
     32 H14          1.3490    -4.4780     0.6670 hn         1 0EV       0.512000
     33 H15          2.6320    -2.4410    -0.9590 h1         1 0EV       0.042200
     34 H16          2.6370    -1.9420     0.7460 h1         1 0EV       0.042200
     35 C14          0.1200     5.1990     0.1130 c6         1 0EV      -0.060700
     36 C15          0.2880     6.2830     1.2150 c6         1 0EV      -0.068900
     37 C16          0.9690     7.5600     0.6620 c6         1 0EV      -0.073400
     38 C17          2.3340     7.2300     0.0130 c6         1 0EV      -0.074400
     39 C18          2.1810     6.1550    -1.0890 c6         1 0EV      -0.073400
     40 C19          1.4990     4.8770    -0.5390 c6         1 0EV      -0.068900
     41 C20          3.8010    -3.7210     0.3370 c3         1 0EV      -0.042100
     42 C21          5.1190    -2.9890     0.1180 ca         1 0EV      -0.090300
     43 C22          5.7290    -2.2910     1.1790 ca         1 0EV      -0.104000
     44 C23          6.9410    -1.6090     0.9750 ca         1 0EV      -0.107500
     45 C24          7.5500    -1.6200    -0.2910 ca         1 0EV      -0.105000
     46 C25          6.9450    -2.3120    -1.3530 ca         1 0EV      -0.107500
     47 C26          5.7330    -2.9940    -1.1500 ca         1 0EV      -0.104000
     48 H4          -0.5500     5.5990    -0.6610 hc         1 0EV       0.043700
     49 H13         -0.6930     6.5460     1.6350 hc         1 0EV       0.041200
     50 H17          0.8830     5.8810     2.0470 hc         1 0EV       0.041200
     51 H18          0.3130     8.0390    -0.0780 hc         1 0EV       0.037450
     52 H19          1.1080     8.2890     1.4730 hc         1 0EV       0.037450
     53 H20          2.7750     8.1420    -0.4130 hc         1 0EV       0.037200
     54 H21          3.0340     6.8750     0.7830 hc         1 0EV       0.037200
     55 H22          1.5890     6.5600    -1.9220 hc         1 0EV       0.037450
     56 H23          3.1670     5.9020    -1.5020 hc         1 0EV       0.037450
     57 H24          2.1570     4.3990     0.2000 hc         1 0EV       0.041200
     58 H25          1.3740     4.1550    -1.3560 hc         1 0EV       0.041200
     59 H26          3.7500    -4.1020     1.3640 hc         1 0EV       0.058200
     60 H27          3.7430    -4.5960    -0.3210 hc         1 0EV       0.058200
     61 H28          5.2630    -2.2760     2.1630 ha         1 0EV       0.112500
     62 H29          7.4080    -1.0730     1.7990 ha         1 0EV       0.115000
     63 H30          8.4880    -1.0920    -0.4490 ha         1 0EV       0.115000
     64 H31          7.4150    -2.3200    -2.3350 ha         1 0EV       0.115000
     65 H32          5.2700    -3.5260    -1.9790 ha         1 0EV       0.112500
@<TRIPOS>BOND
     1     1     2 1   
     2     1    21 1   
     3     1    22 1   
     4     1    35 1   
     5     2     3 1   
     6     2    23 1   
     7     3     4 1   
     8     3    24 1   
     9     3    25 1   
    10     4     5 1   
    11     4    26 1   
    12     4    27 1   
    13     5     6 ar  
    14     5    14 ar  
    15     6     7 1   
    16     6    11 ar  
    17     7     8 2   
    18     8     9 1   
    19     8    28 1   
    20     9    10 1   
    21     9    29 1   
    22    10    11 1   
    23    10    20 2   
    24    11    12 ar  
    25    12    13 ar  
    26    12    30 1   
    27    13    14 ar  
    28    13    17 1   
    29    14    15 1   
    30    15    16 1   
    31    15    31 1   
    32    16    17 2   
    33    16    18 1   
    34    18    19 1   
    35    18    32 1   
    36    19    33 1   
    37    19    34 1   
    38    19    41 1   
    39    35    36 1   
    40    35    40 1   
    41    35    48 1   
    42    36    37 1   
    43    36    49 1   
    44    36    50 1   
    45    37    38 1   
    46    37    51 1   
    47    37    52 1   
    48    38    39 1   
    49    38    53 1   
    50    38    54 1   
    51    39    40 1   
    52    39    55 1   
    53    39    56 1   
    54    40    57 1   
    55    40    58 1   
    56    41    42 1   
    57    41    59 1   
    58    41    60 1   
    59    42    43 ar  
    60    42    47 ar  
    61    43    44 ar  
    62    43    61 1   
    63    44    45 ar  
    64    44    62 1   
    65    45    46 ar  
    66    45    63 1   
    67    46    47 ar  
    68    46    64 1   
    69    47    65 1   
@<TRIPOS>SUBSTRUCTURE
     1 0EV         1 TEMP              0 ****  ****    0 ROOT
