@<TRIPOS>MOLECULE
0EV
   65    69     1     0     0
SMALL
bcc


@<TRIPOS>ATOM
      1 C1          -0.6530     3.9530     0.5940 c3         1 0EV       0.161800
      2 N1          -0.8170     2.9250    -0.4150 n7         1 0EV      -0.812200
      3 C2          -1.4480     1.7250     0.0930 c3         1 0EV       0.161800
      4 C3          -1.5990     0.6840    -1.0140 c3         1 0EV      -0.017100
      5 C4          -2.2180    -0.5850    -0.5080 ca         1 0EV      -0.072300
      6 C5          -3.6120    -0.7350    -0.3670 ca         1 0EV       0.172400
      7 N2          -4.4130     0.3220    -0.7480 nc         1 0EV      -0.627100
      8 C6          -5.6770     0.1870    -0.6210 cd         1 0EV       0.494800
      9 N3          -6.2870    -0.9250    -0.1350 ns         1 0EV      -0.502400
     10 C7          -5.6090    -2.0470     0.2800 c          1 0EV       0.720100
     11 C8          -4.1620    -1.9330     0.1470 ca         1 0EV      -0.206600
     12 C9          -3.3570    -3.0090     0.5340 ca         1 0EV      -0.021000
     13 C10         -1.9920    -2.8750     0.3990 ca         1 0EV       0.095400
     14 C11         -1.4610    -1.6670    -0.1150 ca         1 0EV      -0.045200
     15 N4          -0.1020    -1.8690    -0.1180 na         1 0EV      -0.306300
     16 C12          0.1220    -3.1300     0.3610 cc         1 0EV       0.670700
     17 N5          -0.9840    -3.7590     0.6870 nd         1 0EV      -0.649100
     18 N6           1.3520    -3.6540     0.4530 nu         1 0EV      -0.850200
     19 C13          2.5750    -2.9010     0.2680 c3         1 0EV       0.227800
     20 O1          -6.2050    -3.0220     0.7110 o          1 0EV      -0.615500
     21 H1          -1.6130     4.2420     1.0560 h1         1 0EV       0.028700
     22 H2          -0.0370     3.5460     1.4040 h1         1 0EV       0.028700
     23 H3          -1.3910     3.3000    -1.1640 hn         1 0EV       0.351800
     24 H5          -0.8190     1.3170     0.8910 h1         1 0EV       0.035200
     25 H6          -2.4350     1.9140     0.5420 h1         1 0EV       0.035200
     26 H7          -2.2150     1.0970    -1.8160 hc         1 0EV       0.054200
     27 H8          -0.6180     0.4820    -1.4510 hc         1 0EV       0.054200
     28 H9          -6.3450     0.9900    -0.9090 h5         1 0EV       0.043800
     29 H10         -7.2960    -0.9340    -0.0710 hn         1 0EV       0.329500
     30 H11         -3.7970    -3.9170     0.9250 ha         1 0EV       0.170000
     31 H12          0.5980    -1.2100    -0.4190 hn         1 0EV       0.311700
     32 H14          1.4080    -4.5130     0.9790 hn         1 0EV       0.456800
     33 H15          2.5190    -2.3370    -0.6660 h1         1 0EV       0.042200
     34 H16          2.7290    -2.1790     1.0780 h1         1 0EV       0.042200
     35 C14          0.0260     5.2000     0.0390 c6         1 0EV      -0.060700
     36 C15          0.0530     6.3090     1.0910 c6         1 0EV      -0.068900
     37 C16          0.7360     7.5710     0.5720 c6         1 0EV      -0.073400
     38 C17          2.1430     7.2690     0.0690 c6         1 0EV      -0.074400
     39 C18          2.1240     6.1690    -0.9880 c6         1 0EV      -0.073400
     40 C19          1.4380     4.9100    -0.4660 c6         1 0EV      -0.068900
     41 C20          3.7630    -3.8550     0.1920 c3         1 0EV      -0.042100
     42 C21          5.0500    -3.1020     0.0040 ca         1 0EV      -0.090300
     43 C22          5.7730    -2.6470     1.1040 ca         1 0EV      -0.122000
     44 C23          6.9480    -1.9260     0.9340 ca         1 0EV      -0.125500
     45 C24          7.4150    -1.6460    -0.3430 ca         1 0EV      -0.123000
     46 C25          6.7000    -2.0930    -1.4480 ca         1 0EV      -0.125500
     47 C26          5.5270    -2.8140    -1.2730 ca         1 0EV      -0.122000
     48 H4          -0.5730     5.5630    -0.8100 hc         1 0EV       0.043700
     49 H13         -0.9660     6.5400     1.4160 hc         1 0EV       0.041200
     50 H17          0.5880     5.9490     1.9780 hc         1 0EV       0.041200
     51 H18          0.1410     7.9940    -0.2450 hc         1 0EV       0.037450
     52 H19          0.7670     8.3310     1.3570 hc         1 0EV       0.037450
     53 H20          2.6080     8.1750    -0.3300 hc         1 0EV       0.037200
     54 H21          2.7650     6.9470     0.9120 hc         1 0EV       0.037200
     55 H22          1.5890     6.5270    -1.8750 hc         1 0EV       0.037450
     56 H23          3.1410     5.9360    -1.3130 hc         1 0EV       0.037450
     57 H24          2.0280     4.4910     0.3600 hc         1 0EV       0.041200
     58 H25          1.4060     4.1440    -1.2420 hc         1 0EV       0.041200
     59 H26          3.8080    -4.4470     1.1090 hc         1 0EV       0.058200
     60 H27          3.6070    -4.5520    -0.6340 hc         1 0EV       0.058200
     61 H28          5.4170    -2.8660     2.1040 ha         1 0EV       0.130500
     62 H29          7.5000    -1.5870     1.8010 ha         1 0EV       0.133000
     63 H30          8.3310    -1.0870    -0.4780 ha         1 0EV       0.133000
     64 H31          7.0600    -1.8840    -2.4470 ha         1 0EV       0.133000
     65 H32          4.9780    -3.1630    -2.1410 ha         1 0EV       0.130500
@<TRIPOS>BOND
     1     1     2 1   
     2     1    21 1   
     3     1    22 1   
     4     1    35 1   
     5     2     3 1   
     6     2    23 1   
     7     3     4 1   
     8     3    24 1   
     9     3    25 1   
    10     4     5 1   
    11     4    26 1   
    12     4    27 1   
    13     5     6 ar  
    14     5    14 ar  
    15     6     7 1   
    16     6    11 ar  
    17     7     8 2   
    18     8     9 1   
    19     8    28 1   
    20     9    10 1   
    21     9    29 1   
    22    10    11 1   
    23    10    20 2   
    24    11    12 ar  
    25    12    13 ar  
    26    12    30 1   
    27    13    14 ar  
    28    13    17 1   
    29    14    15 1   
    30    15    16 1   
    31    15    31 1   
    32    16    17 2   
    33    16    18 1   
    34    18    19 1   
    35    18    32 1   
    36    19    33 1   
    37    19    34 1   
    38    19    41 1   
    39    35    36 1   
    40    35    40 1   
    41    35    48 1   
    42    36    37 1   
    43    36    49 1   
    44    36    50 1   
    45    37    38 1   
    46    37    51 1   
    47    37    52 1   
    48    38    39 1   
    49    38    53 1   
    50    38    54 1   
    51    39    40 1   
    52    39    55 1   
    53    39    56 1   
    54    40    57 1   
    55    40    58 1   
    56    41    42 1   
    57    41    59 1   
    58    41    60 1   
    59    42    43 ar  
    60    42    47 ar  
    61    43    44 ar  
    62    43    61 1   
    63    44    45 ar  
    64    44    62 1   
    65    45    46 ar  
    66    45    63 1   
    67    46    47 ar  
    68    46    64 1   
    69    47    65 1   
@<TRIPOS>SUBSTRUCTURE
     1 0EV         1 TEMP              0 ****  ****    0 ROOT
