@<TRIPOS>MOLECULE
0EW
   58    61     1     0     0
SMALL
No Charge or Current Charge


@<TRIPOS>ATOM
      1 C1          12.6430    41.1500    -8.3540 c3         1 0EW      -0.276400
      2 C2          15.5970    40.8020    -8.6410 c6         1 0EW      -0.307300
      3 C3          15.7370    42.2420    -8.0160 c3         1 0EW      -0.084100
      4 C4          16.7550    40.6470    -9.6890 c6         1 0EW      -0.063400
      5 C5          17.0510    39.1620    -9.9790 c6         1 0EW      -0.107400
      6 C6          17.4740    38.4360    -8.6660 c6         1 0EW       0.202500
      7 N2          20.4890    40.7930    -5.4070 ns         1 0EW      -0.125000
      8 N3          19.8430    42.0670    -3.0300 nb         1 0EW      -0.682000
      9 C7          17.4710    36.8740    -8.8810 c3         1 0EW       0.202600
     10 C8          15.7120    39.7150    -7.5770 c2         1 0EW       0.653200
     11 C9          18.9100    38.9020    -8.2310 ca         1 0EW      -0.085300
     12 C10         19.1200    39.6320    -7.0280 ca         1 0EW      -0.127000
     13 C11         20.3980    40.0700    -6.6300 ca         1 0EW      -0.036000
     14 C12         21.5080    39.7810    -7.4470 ca         1 0EW      -0.104000
     15 C13         21.3290    39.0690    -8.6410 ca         1 0EW      -0.126000
     16 C14         20.0530    38.6370    -9.0330 ca         1 0EW       0.146000
     17 C15         21.5580    41.3670    -4.7230 c          1 0EW       0.517600
     18 O2          22.7200    41.3280    -5.1240 o          1 0EW      -0.572100
     19 C19         21.6390    44.3920     0.4660 c5         1 0EW       0.598000
     20 O3          22.5870    43.9490    -0.5660 os         1 0EW      -0.342100
     21 F2          21.6810    45.7790     0.5760 f          1 0EW      -0.070500
     22 O4          20.2770    43.9640     0.1150 os         1 0EW      -0.341100
     23 C20         20.4720    43.3110    -1.0650 ca         1 0EW       0.010100
     24 C18         21.7790    43.3050    -1.4470 ca         1 0EW       0.082100
     25 C17         22.1720    42.6800    -2.6340 ca         1 0EW      -0.068000
     26 C21         19.5020    42.6870    -1.8650 ca         1 0EW       0.380900
     27 C16         21.1660    42.0600    -3.4170 ca         1 0EW       0.295500
     28 F1          19.9580    37.9700   -10.2030 f          1 0EW      -0.181000
     29 F           16.2360    36.3740    -9.1600 f          1 0EW      -0.254000
     30 N           16.4880    38.7030    -7.5780 n2         1 0EW      -0.668900
     31 S           13.9700    40.6980    -9.5090 s6         1 0EW       1.032000
     32 O           13.9660    41.7180   -10.5660 o          1 0EW      -0.501000
     33 C           11.2370    41.1060    -8.9990 c3         1 0EW      -0.074100
     34 H1          12.6920    40.4430    -7.5200 h1         1 0EW       0.095700
     35 H2          12.8580    42.1610    -7.9960 h1         1 0EW       0.095700
     36 H3          14.9410    42.4880    -7.3050 hc         1 0EW       0.051700
     37 H4          16.6880    42.3470    -7.4770 hc         1 0EW       0.051700
     38 H5          15.7230    43.0190    -8.7910 hc         1 0EW       0.051700
     39 H6          17.6750    41.1140    -9.3070 hc         1 0EW       0.069200
     40 H7          16.5310    41.1800   -10.6240 hc         1 0EW       0.069200
     41 H8          16.1700    38.6780   -10.4170 hc         1 0EW       0.080700
     42 H9          17.8300    39.0870   -10.7460 hc         1 0EW       0.080700
     43 H10         15.2440    39.2420    -5.7410 hn         1 0EW       0.469500
     44 H11         14.9970    40.8740    -6.1260 hn         1 0EW       0.469500
     45 H12         19.6010    40.9190    -4.9350 hn         1 0EW       0.181000
     46 H13         17.8400    36.3870    -7.9700 h1         1 0EW       0.056200
     47 H14         18.1300    36.5940    -9.7080 h1         1 0EW       0.056200
     48 H15         18.2870    39.8760    -6.3750 ha         1 0EW       0.123000
     49 H16         22.5110    40.0980    -7.1820 ha         1 0EW       0.151000
     50 H17         22.1850    38.8510    -9.2740 ha         1 0EW       0.137000
     51 H18         23.2140    42.6740    -2.9410 ha         1 0EW       0.178000
     52 H19         18.4510    42.6780    -1.5800 h4         1 0EW       0.051100
     53 H20         10.4710    41.3830    -8.2650 hc         1 0EW       0.056700
     54 H21         11.1690    41.8050    -9.8420 hc         1 0EW       0.056700
     55 H22         11.0050    40.0980    -9.3670 hc         1 0EW       0.056700
     56 N1          14.9910    39.9180    -6.4510 nv         1 0EW      -1.040200
     57 O1          13.7420    39.2980    -9.8890 o          1 0EW      -0.501000
     58 F3          21.9990    43.8480     1.6960 f          1 0EW      -0.070500
@<TRIPOS>BOND
     1     1    31 1   
     2     1    33 1   
     3     1    34 1   
     4     1    35 1   
     5     2     3 1   
     6     2     4 1   
     7     2    10 1   
     8     2    31 1   
     9     3    36 1   
    10     3    37 1   
    11     3    38 1   
    12     4     5 1   
    13     4    39 1   
    14     4    40 1   
    15     5     6 1   
    16     5    41 1   
    17     5    42 1   
    18     6     9 1   
    19     6    11 1   
    20     6    30 1   
    21     7    13 1   
    22     7    17 1   
    23     7    45 1   
    24     8    26 ar  
    25     8    27 ar  
    26     9    29 1   
    27     9    46 1   
    28     9    47 1   
    29    10    30 2   
    30    10    56 1   
    31    11    12 ar  
    32    11    16 ar  
    33    12    13 ar  
    34    12    48 1   
    35    13    14 ar  
    36    14    15 ar  
    37    14    49 1   
    38    15    16 ar  
    39    15    50 1   
    40    16    28 1   
    41    17    18 2   
    42    17    27 1   
    43    19    20 1   
    44    19    21 1   
    45    19    22 1   
    46    19    58 1   
    47    20    24 1   
    48    22    23 1   
    49    23    24 ar  
    50    23    26 ar  
    51    24    25 ar  
    52    25    27 ar  
    53    25    51 1   
    54    26    52 1   
    55    31    32 2   
    56    31    57 2   
    57    33    53 1   
    58    33    54 1   
    59    33    55 1   
    60    43    56 1   
    61    44    56 1   
@<TRIPOS>SUBSTRUCTURE
     1 0EW         1 TEMP              0 ****  ****    0 ROOT
