@<TRIPOS>MOLECULE
0EW
   58    61     1     0     0
SMALL
abcg2


@<TRIPOS>ATOM
      1 C1          12.7050    41.1110    -8.2390 c3         1 0EW      -0.276400
      2 C2          15.6800    40.8730    -8.4810 c6         1 0EW      -0.307300
      3 C3          15.7500    42.2730    -7.8680 c3         1 0EW      -0.084100
      4 C4          16.7700    40.7410    -9.5530 c6         1 0EW      -0.063400
      5 C5          17.1000    39.3020    -9.8950 c6         1 0EW      -0.107400
      6 C6          17.5150    38.5470    -8.6260 c6         1 0EW       0.202500
      7 N2          20.4930    40.8490    -5.4990 ns         1 0EW      -0.125000
      8 N3          19.8720    42.2420    -3.3650 nb         1 0EW      -0.682000
      9 C7          17.4610    37.0310    -8.8370 c3         1 0EW       0.202600
     10 C8          15.8250    39.7680    -7.4470 c2         1 0EW       0.653200
     11 C9          18.9430    38.9430    -8.2260 ca         1 0EW      -0.085300
     12 C10         19.1710    39.6740    -7.0690 ca         1 0EW      -0.127000
     13 C11         20.4400    40.0980    -6.6740 ca         1 0EW      -0.036000
     14 C12         21.5420    39.7700    -7.4570 ca         1 0EW      -0.104000
     15 C13         21.3400    39.0370    -8.6170 ca         1 0EW      -0.126000
     16 C14         20.0710    38.6430    -8.9840 ca         1 0EW       0.146000
     17 C15         21.5570    41.2520    -4.7800 c          1 0EW       0.517600
     18 O2          22.7260    41.0400    -5.0470 o          1 0EW      -0.572100
     19 C19         21.4380    44.2390     0.3010 c5         1 0EW       0.598000
     20 O3          22.3750    43.6860    -0.5440 os         1 0EW      -0.342100
     21 F2          21.6810    45.5330     0.4740 f          1 0EW      -0.070500
     22 O4          20.1880    44.0580    -0.2390 os         1 0EW      -0.341100
     23 C20         20.3550    43.3640    -1.3950 ca         1 0EW       0.010100
     24 C18         21.7010    43.1360    -1.5830 ca         1 0EW       0.082100
     25 C17         22.1680    42.4560    -2.6750 ca         1 0EW      -0.068000
     26 C21         19.4330    42.9100    -2.3030 ca         1 0EW       0.380900
     27 C16         21.1650    42.0240    -3.5480 ca         1 0EW       0.295500
     28 F1          19.9480    37.9480   -10.1330 f          1 0EW      -0.181000
     29 F           16.1390    36.6410    -9.0230 f          1 0EW      -0.254000
     30 N           16.6420    38.7970    -7.5060 n2         1 0EW      -0.668900
     31 S           14.0550    40.6730    -9.3470 s6         1 0EW       1.032000
     32 O           14.0420    41.6580   -10.4320 o          1 0EW      -0.501000
     33 C           11.3900    40.9740    -8.9930 c3         1 0EW      -0.074100
     34 H1          12.7450    40.4410    -7.3830 h1         1 0EW       0.095700
     35 H2          12.8610    42.1350    -7.9010 h1         1 0EW       0.095700
     36 H3          14.9510    42.5030    -7.1660 hc         1 0EW       0.051700
     37 H4          16.6970    42.3730    -7.3380 hc         1 0EW       0.051700
     38 H5          15.7280    43.0260    -8.6550 hc         1 0EW       0.051700
     39 H6          17.6610    41.2400    -9.1610 hc         1 0EW       0.069200
     40 H7          16.4900    41.3030   -10.4440 hc         1 0EW       0.069200
     41 H8          16.2400    38.8140   -10.3530 hc         1 0EW       0.080700
     42 H9          17.8980    39.2800   -10.6370 hc         1 0EW       0.080700
     43 H10         15.1730    39.1990    -5.6320 hn         1 0EW       0.469500
     44 H11         14.6970    40.7580    -6.0500 hn         1 0EW       0.469500
     45 H12         19.6000    41.1160    -5.1000 hn         1 0EW       0.181000
     46 H13         17.8430    36.5190    -7.9520 h1         1 0EW       0.056200
     47 H14         18.0210    36.7140    -9.7140 h1         1 0EW       0.056200
     48 H15         18.3290    39.9290    -6.4400 ha         1 0EW       0.123000
     49 H16         22.5410    40.0740    -7.1910 ha         1 0EW       0.151000
     50 H17         22.1810    38.7740    -9.2460 ha         1 0EW       0.137000
     51 H18         23.2160    42.2630    -2.8530 ha         1 0EW       0.178000
     52 H19         18.3670    43.0690    -2.1930 h4         1 0EW       0.051100
     53 H20         10.5780    41.2410    -8.3190 hc         1 0EW       0.056700
     54 H21         11.3430    41.6410    -9.8520 hc         1 0EW       0.056700
     55 H22         11.2210    39.9530    -9.3290 hc         1 0EW       0.056700
     56 N1          14.9810    39.8500    -6.3780 nv         1 0EW      -1.040200
     57 O1          13.8910    39.2570    -9.6880 o          1 0EW      -0.501000
     58 F3          21.5110    43.6690     1.5010 f          1 0EW      -0.070500
@<TRIPOS>BOND
     1     1    31 1   
     2     1    33 1   
     3     1    34 1   
     4     1    35 1   
     5     2     3 1   
     6     2     4 1   
     7     2    10 1   
     8     2    31 1   
     9     3    36 1   
    10     3    37 1   
    11     3    38 1   
    12     4     5 1   
    13     4    39 1   
    14     4    40 1   
    15     5     6 1   
    16     5    41 1   
    17     5    42 1   
    18     6     9 1   
    19     6    11 1   
    20     6    30 1   
    21     7    13 1   
    22     7    17 1   
    23     7    45 1   
    24     8    26 ar  
    25     8    27 ar  
    26     9    29 1   
    27     9    46 1   
    28     9    47 1   
    29    10    30 2   
    30    10    56 1   
    31    11    12 ar  
    32    11    16 ar  
    33    12    13 ar  
    34    12    48 1   
    35    13    14 ar  
    36    14    15 ar  
    37    14    49 1   
    38    15    16 ar  
    39    15    50 1   
    40    16    28 1   
    41    17    18 2   
    42    17    27 1   
    43    19    20 1   
    44    19    21 1   
    45    19    22 1   
    46    19    58 1   
    47    20    24 1   
    48    22    23 1   
    49    23    24 ar  
    50    23    26 ar  
    51    24    25 ar  
    52    25    27 ar  
    53    25    51 1   
    54    26    52 1   
    55    31    32 2   
    56    31    57 2   
    57    33    53 1   
    58    33    54 1   
    59    33    55 1   
    60    43    56 1   
    61    44    56 1   
@<TRIPOS>SUBSTRUCTURE
     1 0EW         1 TEMP              0 ****  ****    0 ROOT
