@<TRIPOS>MOLECULE
0EX
   61    65     1     0     0
SMALL
abcg2


@<TRIPOS>ATOM
      1 N1           2.4040     1.1070     0.0700 na         1 0EX      -0.355600
      2 C3           1.2300     1.8300     0.1170 ca         1 0EX      -0.117200
      3 C2           0.9410     3.1490    -0.0960 ca         1 0EX      -0.027000
      4 C4          -0.4010     3.5290     0.0460 ca         1 0EX      -0.227600
      5 C5          -1.4110     2.5990     0.3950 ca         1 0EX       0.217400
      6 C6          -1.0890     1.2470     0.6170 ca         1 0EX      -0.059300
      7 C7          -2.1310     0.2320     0.9730 c3         1 0EX      -0.012100
      8 C8          -2.7790    -0.3810    -0.2650 c3         1 0EX       0.163800
      9 N2          -3.7880    -1.3520     0.1140 n7         1 0EX      -0.862400
     10 C9          -4.4170    -1.9850    -1.0280 c3         1 0EX       0.207100
     11 C10         -5.4100    -3.0360    -0.6070 ca         1 0EX      -0.087300
     12 C11         -6.6600    -3.1160    -1.2140 ca         1 0EX      -0.098500
     13 C12         -7.5700    -4.1010    -0.8480 ca         1 0EX      -0.116000
     14 C13         -7.2390    -5.0190     0.1390 ca         1 0EX      -0.111000
     15 C14         -5.9950    -4.9450     0.7550 ca         1 0EX      -0.116000
     16 C15         -5.0900    -3.9610     0.3860 ca         1 0EX      -0.098500
     17 C16          0.2410     0.8770     0.4650 ca         1 0EX       0.159400
     18 N3           0.8070    -0.3590     0.6160 nc         1 0EX      -0.662100
     19 C17          2.0910    -0.1800     0.3780 cd         1 0EX       0.681700
     20 N4           3.0150    -1.1500     0.4580 nu         1 0EX      -0.903400
     21 C1           4.3860    -1.0000     0.0180 c3         1 0EX       0.227800
     22 N5          -2.7250     2.9760     0.5270 nc         1 0EX      -0.704100
     23 C18         -3.0320     4.2150     0.3390 cd         1 0EX       0.703800
     24 N6          -4.3010     4.6500     0.5180 nv         1 0EX      -1.034200
     25 N7          -2.1120     5.1700     0.0010 ns         1 0EX      -0.452400
     26 C19         -0.7700     4.9140    -0.1680 c          1 0EX       0.592600
     27 O1          -0.0030     5.8170    -0.4700 o          1 0EX      -0.553000
     28 H1           3.3160     1.4720    -0.1540 hn         1 0EX       0.358000
     29 H2           1.6980     3.8740    -0.3610 ha         1 0EX       0.136000
     30 H3          -1.6810    -0.5670     1.5650 hc         1 0EX       0.063700
     31 H4          -2.9050     0.6970     1.5870 hc         1 0EX       0.063700
     32 H5          -3.1800     0.4230    -0.9010 h1         1 0EX       0.032200
     33 H6          -2.0150    -0.8940    -0.8580 h1         1 0EX       0.032200
     34 H7          -4.5010    -0.8850     0.6630 hn         1 0EX       0.408000
     35 H9          -4.9140    -1.2690    -1.7010 h1         1 0EX       0.033700
     36 H10         -3.6270    -2.4570    -1.6230 h1         1 0EX       0.033700
     37 H11         -6.9280    -2.3960    -1.9790 ha         1 0EX       0.118000
     38 H12         -8.5380    -4.1450    -1.3290 ha         1 0EX       0.110000
     39 H13         -7.9470    -5.7840     0.4310 ha         1 0EX       0.109000
     40 H14         -5.7310    -5.6580     1.5270 ha         1 0EX       0.110000
     41 H15         -4.1250    -3.9030     0.8750 ha         1 0EX       0.118000
     42 H17          2.6440    -2.0850     0.5230 hn         1 0EX       0.513000
     43 H18          4.4550    -0.9400    -1.0740 h1         1 0EX       0.041700
     44 H19          4.7940    -0.0700     0.4210 h1         1 0EX       0.041700
     45 H21         -5.0040     3.9330     0.5820 hn         1 0EX       0.485500
     46 H22         -4.6020     5.4940     0.0600 hn         1 0EX       0.485500
     47 H23         -2.4100     6.1300    -0.1170 hn         1 0EX       0.323500
     48 C20          5.2270    -2.1670     0.5250 c3         1 0EX      -0.043100
     49 C21          6.6580    -2.0330     0.0870 ca         1 0EX      -0.090300
     50 C22          7.5710    -1.3120     0.8550 ca         1 0EX      -0.104000
     51 C23          8.8840    -1.1530     0.4350 ca         1 0EX      -0.108000
     52 C24          9.3060    -1.7150    -0.7630 ca         1 0EX      -0.105000
     53 C25          8.4050    -2.4340    -1.5370 ca         1 0EX      -0.108000
     54 C26          7.0920    -2.5900    -1.1140 ca         1 0EX      -0.104000
     55 H8           5.1630    -2.2030     1.6150 hc         1 0EX       0.058700
     56 H16          4.8080    -3.1040     0.1480 hc         1 0EX       0.058700
     57 H20          7.2520    -0.8750     1.7940 ha         1 0EX       0.112500
     58 H24          9.5800    -0.5930     1.0460 ha         1 0EX       0.115000
     59 H25         10.3310    -1.5960    -1.0890 ha         1 0EX       0.115000
     60 H26          8.7250    -2.8780    -2.4710 ha         1 0EX       0.115000
     61 H27          6.3970    -3.1600    -1.7210 ha         1 0EX       0.112500
@<TRIPOS>BOND
     1     1     2 1   
     2     1    19 1   
     3     1    28 1   
     4     2     3 ar  
     5     2    17 ar  
     6     3     4 ar  
     7     3    29 1   
     8     4     5 ar  
     9     4    26 1   
    10     5     6 ar  
    11     5    22 1   
    12     6     7 1   
    13     6    17 ar  
    14     7     8 1   
    15     7    30 1   
    16     7    31 1   
    17     8     9 1   
    18     8    32 1   
    19     8    33 1   
    20     9    10 1   
    21     9    34 1   
    22    10    11 1   
    23    10    35 1   
    24    10    36 1   
    25    11    12 ar  
    26    11    16 ar  
    27    12    13 ar  
    28    12    37 1   
    29    13    14 ar  
    30    13    38 1   
    31    14    15 ar  
    32    14    39 1   
    33    15    16 ar  
    34    15    40 1   
    35    16    41 1   
    36    17    18 1   
    37    18    19 2   
    38    19    20 1   
    39    20    21 1   
    40    20    42 1   
    41    21    43 1   
    42    21    44 1   
    43    21    48 1   
    44    22    23 2   
    45    23    24 1   
    46    23    25 1   
    47    24    45 1   
    48    24    46 1   
    49    25    26 1   
    50    25    47 1   
    51    26    27 2   
    52    48    49 1   
    53    48    55 1   
    54    48    56 1   
    55    49    50 ar  
    56    49    54 ar  
    57    50    51 ar  
    58    50    57 1   
    59    51    52 ar  
    60    51    58 1   
    61    52    53 ar  
    62    52    59 1   
    63    53    54 ar  
    64    53    60 1   
    65    54    61 1   
@<TRIPOS>SUBSTRUCTURE
     1 0EX         1 TEMP              0 ****  ****    0 ROOT
