@<TRIPOS>MOLECULE
0EX
   61    65     1     0     0
SMALL
No Charge or Current Charge


@<TRIPOS>ATOM
      1 N1           2.4300     1.3540     0.0620 na         1 0EX      -0.355600
      2 C3           1.1940     1.9400     0.1030 ca         1 0EX      -0.117200
      3 C2           0.8520     3.2680    -0.1460 ca         1 0EX      -0.027000
      4 C4          -0.5090     3.6260    -0.0460 ca         1 0EX      -0.227600
      5 C5          -1.5000     2.6650     0.3000 ca         1 0EX       0.217400
      6 C6          -1.0970     1.3190     0.5520 ca         1 0EX      -0.059300
      7 C7          -2.1130     0.2300     0.9220 c3         1 0EX      -0.012100
      8 C8          -2.7610    -0.4030    -0.3260 c3         1 0EX       0.163800
      9 N2          -3.7410    -1.4400     0.0560 n7         1 0EX      -0.862400
     10 C9          -4.3950    -2.1260    -1.0720 c3         1 0EX       0.207100
     11 C10         -5.4170    -3.1350    -0.5660 ca         1 0EX      -0.087300
     12 C11         -6.7780    -2.7810    -0.4630 ca         1 0EX      -0.098500
     13 C12         -7.7210    -3.7160    -0.0000 ca         1 0EX      -0.116000
     14 C13         -7.3100    -5.0100     0.3630 ca         1 0EX      -0.111000
     15 C14         -5.9550    -5.3680     0.2640 ca         1 0EX      -0.116000
     16 C15         -5.0110    -4.4340    -0.1990 ca         1 0EX      -0.098500
     17 C16          0.2700     0.9900     0.4390 ca         1 0EX       0.159400
     18 N3           0.8760    -0.2480     0.6250 nc         1 0EX      -0.662100
     19 C17          2.1510     0.0390     0.3870 cd         1 0EX       0.681700
     20 N4           3.0750    -0.9310     0.4720 nu         1 0EX      -0.903400
     21 C1           4.5050    -0.8220     0.1600 c3         1 0EX       0.227800
     22 N5          -2.8710     2.9900     0.4010 nc         1 0EX      -0.704100
     23 C18         -3.1120     4.2500     0.1460 cd         1 0EX       0.703800
     24 N6          -4.3880     4.5890     0.2240 nv         1 0EX      -1.034200
     25 N7          -2.2560     5.2240    -0.1820 ns         1 0EX      -0.452400
     26 C19         -0.9320     5.0260    -0.3040 c          1 0EX       0.592600
     27 O1          -0.1680     5.9320    -0.6000 o          1 0EX      -0.553000
     28 H1           3.3330     1.7530    -0.1450 hn         1 0EX       0.358000
     29 H2           1.6150     3.9980    -0.4120 ha         1 0EX       0.136000
     30 H3          -1.6320    -0.5600     1.5090 hc         1 0EX       0.063700
     31 H4          -2.8970     0.6370     1.5720 hc         1 0EX       0.063700
     32 H5          -3.2510     0.3850    -0.9140 h1         1 0EX       0.032200
     33 H6          -1.9690    -0.8390    -0.9500 h1         1 0EX       0.032200
     34 H7          -4.4770    -0.9960     0.6160 hn         1 0EX       0.408000
     35 H9          -4.9010    -1.3970    -1.7210 h1         1 0EX       0.033700
     36 H10         -3.6490    -2.6470    -1.6880 h1         1 0EX       0.033700
     37 H11         -7.1050    -1.7820    -0.7420 ha         1 0EX       0.118000
     38 H12         -8.7690    -3.4380     0.0770 ha         1 0EX       0.110000
     39 H13         -8.0390    -5.7330     0.7210 ha         1 0EX       0.109000
     40 H14         -5.6350    -6.3690     0.5460 ha         1 0EX       0.110000
     41 H15         -3.9630    -4.7160    -0.2710 ha         1 0EX       0.118000
     42 H17          2.6740    -1.8410     0.6830 hn         1 0EX       0.513000
     43 H18          4.6360    -0.4970    -0.8810 h1         1 0EX       0.041700
     44 H19          4.9720    -0.0700     0.8100 h1         1 0EX       0.041700
     45 H21         -5.0100     3.7940     0.2930 hn         1 0EX       0.485500
     46 H22         -4.7080     5.3430    -0.3700 hn         1 0EX       0.485500
     47 H23         -2.5870     6.1620    -0.3290 hn         1 0EX       0.323500
     48 C20          5.2190    -2.1730     0.3600 c3         1 0EX      -0.043100
     49 C21          6.7070    -2.0820     0.0450 ca         1 0EX      -0.090300
     50 C22          7.6280    -1.7440     1.0550 ca         1 0EX      -0.104000
     51 C23          9.0010    -1.6540     0.7620 ca         1 0EX      -0.108000
     52 C24          9.4590    -1.9000    -0.5430 ca         1 0EX      -0.105000
     53 C25          8.5440    -2.2360    -1.5550 ca         1 0EX      -0.108000
     54 C26          7.1720    -2.3260    -1.2630 ca         1 0EX      -0.104000
     55 H8           5.0750    -2.5060     1.3950 hc         1 0EX       0.058700
     56 H16          4.7460    -2.9290    -0.2780 hc         1 0EX       0.058700
     57 H20          7.2820    -1.5490     2.0680 ha         1 0EX       0.112500
     58 H24          9.7080    -1.3930     1.5470 ha         1 0EX       0.115000
     59 H25         10.5210    -1.8300    -0.7690 ha         1 0EX       0.115000
     60 H26          8.8980    -2.4260    -2.5660 ha         1 0EX       0.115000
     61 H27          6.4710    -2.5850    -2.0530 ha         1 0EX       0.112500
@<TRIPOS>BOND
     1     1     2 1   
     2     1    19 1   
     3     1    28 1   
     4     2     3 ar  
     5     2    17 ar  
     6     3     4 ar  
     7     3    29 1   
     8     4     5 ar  
     9     4    26 1   
    10     5     6 ar  
    11     5    22 1   
    12     6     7 1   
    13     6    17 ar  
    14     7     8 1   
    15     7    30 1   
    16     7    31 1   
    17     8     9 1   
    18     8    32 1   
    19     8    33 1   
    20     9    10 1   
    21     9    34 1   
    22    10    11 1   
    23    10    35 1   
    24    10    36 1   
    25    11    12 ar  
    26    11    16 ar  
    27    12    13 ar  
    28    12    37 1   
    29    13    14 ar  
    30    13    38 1   
    31    14    15 ar  
    32    14    39 1   
    33    15    16 ar  
    34    15    40 1   
    35    16    41 1   
    36    17    18 1   
    37    18    19 2   
    38    19    20 1   
    39    20    21 1   
    40    20    42 1   
    41    21    43 1   
    42    21    44 1   
    43    21    48 1   
    44    22    23 2   
    45    23    24 1   
    46    23    25 1   
    47    24    45 1   
    48    24    46 1   
    49    25    26 1   
    50    25    47 1   
    51    26    27 2   
    52    48    49 1   
    53    48    55 1   
    54    48    56 1   
    55    49    50 ar  
    56    49    54 ar  
    57    50    51 ar  
    58    50    57 1   
    59    51    52 ar  
    60    51    58 1   
    61    52    53 ar  
    62    52    59 1   
    63    53    54 ar  
    64    53    60 1   
    65    54    61 1   
@<TRIPOS>SUBSTRUCTURE
     1 0EX         1 TEMP              0 ****  ****    0 ROOT
