@<TRIPOS>MOLECULE
0EY
   38    40     1     0     0
SMALL
abcg2


@<TRIPOS>ATOM
      1 C4           4.6030    -1.5800    -0.2360 c          1 0EY       0.591200
      2 C5           4.3320    -0.8990    -1.4780 cc         1 0EY      -0.384200
      3 C6           3.6200     0.2410    -1.4640 cd         1 0EY       0.014600
      4 C8           0.8590     1.6880    -0.3520 cc         1 0EY       0.145300
      5 C9          -0.0020     1.6120     0.7100 cd         1 0EY      -0.140000
      6 N1           3.1390     0.8070    -0.3220 n          1 0EY      -0.309000
      7 N3           4.0620    -0.9440     0.8730 ns         1 0EY      -0.467500
      8 C2           3.3260     0.2100     0.9040 c          1 0EY       0.618000
      9 O4           5.2340    -2.6130    -0.1080 o          1 0EY      -0.528000
     10 N5           0.1660     1.3730    -1.4700 nc         1 0EY      -0.353000
     11 N6          -1.0520     1.1130    -1.1560 nd         1 0EY      -0.193800
     12 N7          -1.1740     1.2600     0.1550 na         1 0EY       0.085800
     13 C1          -2.4110     0.9330     0.8520 c5         1 0EY       0.315300
     14 O1          -2.4840    -0.4280     1.1200 os         1 0EY      -0.411000
     15 C10         -3.0590    -1.0810    -0.0050 c5         1 0EY       0.155300
     16 C11         -3.7000    -2.3750     0.4280 c3         1 0EY       0.171600
     17 O5          -2.7030    -3.2590     0.8750 oh         1 0EY      -0.703000
     18 C3          -4.0630    -0.0800    -0.5920 c5         1 0EY       0.109300
     19 O3          -4.0040    -0.1450    -1.9880 oh         1 0EY      -0.684000
     20 C12         -3.6570     1.2790     0.0290 c5         1 0EY       0.102300
     21 O2          -4.6010     1.7600     0.9540 oh         1 0EY      -0.708000
     22 H1           4.7000    -1.3070    -2.4060 ha         1 0EY       0.224000
     23 H2           3.3990     0.7770    -2.3760 h4         1 0EY       0.212000
     24 H3           2.5610     2.5270    -1.3090 h1         1 0EY       0.076700
     25 H4           2.5830     2.6710     0.4380 h1         1 0EY       0.076700
     26 H5           0.1280     1.7800     1.7650 h4         1 0EY       0.185000
     27 H6           4.2110    -1.3880     1.7710 hn         1 0EY       0.341500
     28 H7          -2.3770     1.4800     1.7940 h2         1 0EY       0.116700
     29 H8          -2.2870    -1.2860    -0.7590 h1         1 0EY       0.098700
     30 H9          -4.4450    -2.1620     1.2080 h1         1 0EY       0.029200
     31 H10         -4.2460    -2.7760    -0.4360 h1         1 0EY       0.029200
     32 H11         -3.1280    -4.0660     1.1770 ho         1 0EY       0.508000
     33 H12         -5.0720    -0.3190    -0.2280 h1         1 0EY       0.042700
     34 H13         -4.7670     0.3140    -2.3510 ho         1 0EY       0.507000
     35 H14         -3.4450     2.0140    -0.7540 h1         1 0EY       0.081700
     36 H15         -5.4150     1.9590     0.4820 ho         1 0EY       0.513000
     37 C7           2.3110     2.0110    -0.3830 c3         1 0EY       0.098700
     38 O6           2.8740     0.6710     1.9320 o          1 0EY      -0.567000
@<TRIPOS>BOND
     1     1     2 1   
     2     1     7 1   
     3     1     9 2   
     4     2     3 2   
     5     2    22 1   
     6     3     6 1   
     7     3    23 1   
     8     4     5 2   
     9     4    10 1   
    10     4    37 1   
    11     5    12 1   
    12     5    26 1   
    13     6     8 1   
    14     6    37 1   
    15     7     8 1   
    16     7    27 1   
    17     8    38 2   
    18    10    11 2   
    19    11    12 1   
    20    12    13 1   
    21    13    14 1   
    22    13    20 1   
    23    13    28 1   
    24    14    15 1   
    25    15    16 1   
    26    15    18 1   
    27    15    29 1   
    28    16    17 1   
    29    16    30 1   
    30    16    31 1   
    31    17    32 1   
    32    18    19 1   
    33    18    20 1   
    34    18    33 1   
    35    19    34 1   
    36    20    21 1   
    37    20    35 1   
    38    21    36 1   
    39    24    37 1   
    40    25    37 1   
@<TRIPOS>SUBSTRUCTURE
     1 0EY         1 TEMP              0 ****  ****    0 ROOT
