@<TRIPOS>MOLECULE
0EY
   38    40     1     0     0
SMALL
No Charge or Current Charge


@<TRIPOS>ATOM
      1 C4           4.0290    -1.8390     0.0150 c          1 0EY       0.591200
      2 C5           3.5700    -1.3080    -1.2650 cc         1 0EY      -0.384200
      3 C6           3.0480    -0.0400    -1.3820 cd         1 0EY       0.014600
      4 C8           0.9170     2.1660     0.0340 cc         1 0EY       0.145300
      5 C9           0.0350     1.1310     0.1060 cd         1 0EY      -0.140000
      6 N1           2.9540     0.7640    -0.2480 n          1 0EY      -0.309000
      7 N3           3.8860    -0.9680     1.0450 ns         1 0EY      -0.467500
      8 C2           3.3810     0.2940     1.0140 c          1 0EY       0.618000
      9 O4           4.4980    -2.9530     0.1650 o          1 0EY      -0.528000
     10 N5           0.3000     3.3410     0.3590 nc         1 0EY      -0.353000
     11 N6          -0.9530     3.0880     0.6430 nd         1 0EY      -0.193800
     12 N7          -1.1410     1.7360     0.4950 na         1 0EY       0.085800
     13 C1          -2.4590     1.1280     0.7390 c5         1 0EY       0.315300
     14 O1          -2.3130    -0.2890     1.0430 os         1 0EY      -0.411000
     15 C10         -2.8560    -1.0410    -0.0660 c5         1 0EY       0.155300
     16 C11         -3.1270    -2.5120     0.3490 c3         1 0EY       0.171600
     17 O5          -1.8970    -3.2410     0.5230 oh         1 0EY      -0.703000
     18 C3          -4.1200    -0.2110    -0.4120 c5         1 0EY       0.109300
     19 O3          -4.7490    -0.5860    -1.6470 oh         1 0EY      -0.684000
     20 C12         -3.4640     1.2030    -0.4700 c5         1 0EY       0.102300
     21 O2          -4.4350     2.2660    -0.3760 oh         1 0EY      -0.708000
     22 H1           3.6650    -1.9750    -2.1140 ha         1 0EY       0.224000
     23 H2           2.6870     0.4110    -2.3050 h4         1 0EY       0.212000
     24 H3           2.4850     2.5000    -1.3720 h1         1 0EY       0.076700
     25 H4           2.9390     2.8110     0.3050 h1         1 0EY       0.076700
     26 H5           0.1490     0.0690    -0.0730 h4         1 0EY       0.185000
     27 H6           4.1900    -1.2970     1.9470 hn         1 0EY       0.341500
     28 H7          -2.8720     1.6440     1.6130 h2         1 0EY       0.116700
     29 H8          -2.1400    -1.0340    -0.9000 h1         1 0EY       0.098700
     30 H9          -3.7140    -2.5170     1.2780 h1         1 0EY       0.029200
     31 H10         -3.7360    -2.9890    -0.4310 h1         1 0EY       0.029200
     32 H11         -2.1390    -4.1440     0.8370 ho         1 0EY       0.508000
     33 H12         -4.8420    -0.2730     0.4150 h1         1 0EY       0.042700
     34 H13         -5.6900    -0.2950    -1.5980 ho         1 0EY       0.507000
     35 H14         -2.8880     1.3040    -1.4030 h1         1 0EY       0.081700
     36 H15         -4.8740     2.3420    -1.2570 ho         1 0EY       0.513000
     37 C7           2.3770     2.1280    -0.3460 c3         1 0EY       0.098700
     38 O6           3.3120     0.9600     2.0350 o          1 0EY      -0.567000
@<TRIPOS>BOND
     1     1     2 1   
     2     1     7 1   
     3     1     9 2   
     4     2     3 2   
     5     2    22 1   
     6     3     6 1   
     7     3    23 1   
     8     4     5 2   
     9     4    10 1   
    10     4    37 1   
    11     5    12 1   
    12     5    26 1   
    13     6     8 1   
    14     6    37 1   
    15     7     8 1   
    16     7    27 1   
    17     8    38 2   
    18    10    11 2   
    19    11    12 1   
    20    12    13 1   
    21    13    14 1   
    22    13    20 1   
    23    13    28 1   
    24    14    15 1   
    25    15    16 1   
    26    15    18 1   
    27    15    29 1   
    28    16    17 1   
    29    16    30 1   
    30    16    31 1   
    31    17    32 1   
    32    18    19 1   
    33    18    20 1   
    34    18    33 1   
    35    19    34 1   
    36    20    21 1   
    37    20    35 1   
    38    21    36 1   
    39    24    37 1   
    40    25    37 1   
@<TRIPOS>SUBSTRUCTURE
     1 0EY         1 TEMP              0 ****  ****    0 ROOT
