@<TRIPOS>MOLECULE
0F0
   66    69     1     0     0
SMALL
abcg2


@<TRIPOS>ATOM
      1 C01        -10.4030     1.0110     0.7950 ca         1 0F0       0.359900
      2 N02        -11.5520     1.4120     0.2700 nb         1 0F0      -0.671000
      3 C03        -11.6760     1.3850    -1.0520 ca         1 0F0       0.349900
      4 C04        -10.6610     0.9680    -1.9010 ca         1 0F0      -0.174000
      5 C05         -9.4620     0.5580    -1.3460 ca         1 0F0      -0.028000
      6 C06         -9.3190     0.5660     0.0400 cp         1 0F0      -0.214500
      7 C07         -8.0600     0.1270     0.6740 cp         1 0F0       0.234500
      8 N08         -6.9890     0.0940    -0.1020 nb         1 0F0      -0.259000
      9 C09         -7.9880    -0.2500     2.0160 ca         1 0F0      -0.269000
     10 C10         -6.7450    -0.6400     2.4720 ca         1 0F0       0.149900
     11 N11         -5.6630    -0.6730     1.7070 nb         1 0F0      -0.231000
     12 C12         -5.8360    -0.3060     0.4410 ca         1 0F0       0.393900
     13 N13         -4.7870    -0.3110    -0.4240 nu         1 0F0      -0.924900
     14 C14         -3.4500    -0.6540    -0.2540 ca         1 0F0       0.295000
     15 C15         -2.8980    -1.2150     0.8990 ca         1 0F0      -0.128500
     16 C16         -1.5480    -1.5200     0.9430 ca         1 0F0      -0.111500
     17 C17         -2.6020    -0.4280    -1.3430 ca         1 0F0      -0.128500
     18 C18         -1.2570    -0.7430    -1.2990 ca         1 0F0      -0.111500
     19 C19         -0.7070    -1.2930    -0.1420 ca         1 0F0      -0.052000
     20 N20          0.6370    -1.6760    -0.0230 ns         1 0F0      -0.143000
     21 C21          1.7030    -1.1550    -0.6770 c          1 0F0       0.614700
     22 O22          1.6270    -0.2320    -1.4710 o          1 0F0      -0.570100
     23 C23          3.0140    -1.7960    -0.3490 ca         1 0F0      -0.126600
     24 C24          3.1130    -3.1400    -0.0090 ca         1 0F0      -0.119000
     25 C25          4.3650    -3.6800     0.2500 ca         1 0F0      -0.089000
     26 C26          5.4980    -2.8920     0.1800 ca         1 0F0      -0.153000
     27 C27          5.4060    -1.5400    -0.1670 ca         1 0F0      -0.021000
     28 C28          4.1530    -0.9990    -0.4440 ca         1 0F0      -0.084000
     29 N29          6.6020    -0.8230    -0.2140 ns         1 0F0      -0.151000
     30 C30          6.8180     0.4830    -0.5290 c          1 0F0       0.605100
     31 O31          5.9280     1.2680    -0.8050 o          1 0F0      -0.563100
     32 C32          8.2800     0.8730    -0.5340 c3         1 0F0      -0.158400
     33 C33          8.5110     2.3290    -0.1560 c3         1 0F0      -0.068400
     34 C34          9.9950     2.6700    -0.2030 c3         1 0F0       0.166800
     35 N35         10.2770     4.0640     0.0850 n3         1 0F0      -0.710600
     36 C36         10.0030     4.4160     1.4620 c3         1 0F0       0.149600
     37 C37         11.6410     4.3990    -0.2630 c3         1 0F0       0.149600
     38 H1         -10.3370     1.0630     1.8760 h4         1 0F0       0.020100
     39 H2         -12.6270     1.7110    -1.4560 h4         1 0F0       0.021100
     40 H3         -10.8100     0.9660    -2.9710 ha         1 0F0       0.127000
     41 H4          -8.6460     0.2270    -1.9740 ha         1 0F0       0.139000
     42 H5          -8.8440    -0.2620     2.6720 ha         1 0F0       0.138000
     43 H6          -6.6120    -0.9460     3.5040 h4         1 0F0       0.023100
     44 H7          -5.0370     0.0050    -1.3490 hn         1 0F0       0.510000
     45 H8          -3.5130    -1.4090     1.7630 ha         1 0F0       0.131500
     46 H9          -1.1460    -1.9500     1.8530 ha         1 0F0       0.126500
     47 H10         -3.0040    -0.0020    -2.2540 ha         1 0F0       0.131500
     48 H11         -0.6550    -0.5610    -2.1750 ha         1 0F0       0.126500
     49 H12          0.8340    -2.3140     0.7320 hn         1 0F0       0.153000
     50 H13          2.2400    -3.7790     0.0280 ha         1 0F0       0.118000
     51 H14          4.4600    -4.7270     0.5040 ha         1 0F0       0.117000
     52 H15          6.4660    -3.3290     0.3920 ha         1 0F0       0.111000
     53 H16          4.0500     0.0370    -0.7200 ha         1 0F0       0.170000
     54 H17          7.4260    -1.3620     0.0060 hn         1 0F0       0.148000
     55 H18          8.8490     0.2160     0.1280 hc         1 0F0       0.057200
     56 H19          8.6590     0.6840    -1.5450 hc         1 0F0       0.057200
     57 H20          7.9730     2.9870    -0.8420 hc         1 0F0       0.065200
     58 H21         10.5490     1.9960     0.4750 h1         1 0F0       0.026200
     59 H22         10.3640     2.4580    -1.2110 h1         1 0F0       0.026200
     60 H24         10.6010     3.8380     2.1840 h1         1 0F0       0.030700
     61 H25         10.2220     5.4730     1.6220 h1         1 0F0       0.030700
     62 H26          8.9510     4.2650     1.7050 h1         1 0F0       0.030700
     63 H27         11.8200     4.1940    -1.3200 h1         1 0F0       0.030700
     64 H28         11.8180     5.4630    -0.0960 h1         1 0F0       0.030700
     65 H29         12.3920     3.8410     0.3180 h1         1 0F0       0.030700
     66 H30          8.1050     2.5080     0.8420 hc         1 0F0       0.065200
@<TRIPOS>BOND
     1     1     2 ar  
     2     1     6 ar  
     3     1    38 1   
     4     2     3 ar  
     5     3     4 ar  
     6     3    39 1   
     7     4     5 ar  
     8     4    40 1   
     9     5     6 ar  
    10     5    41 1   
    11     6     7 1   
    12     7     8 ar  
    13     7     9 ar  
    14     8    12 ar  
    15     9    10 ar  
    16     9    42 1   
    17    10    11 ar  
    18    10    43 1   
    19    11    12 ar  
    20    12    13 1   
    21    13    14 1   
    22    13    44 1   
    23    14    15 ar  
    24    14    17 ar  
    25    15    16 ar  
    26    15    45 1   
    27    16    19 ar  
    28    16    46 1   
    29    17    18 ar  
    30    17    47 1   
    31    18    19 ar  
    32    18    48 1   
    33    19    20 1   
    34    20    21 1   
    35    20    49 1   
    36    21    22 2   
    37    21    23 1   
    38    23    24 ar  
    39    23    28 ar  
    40    24    25 ar  
    41    24    50 1   
    42    25    26 ar  
    43    25    51 1   
    44    26    27 ar  
    45    26    52 1   
    46    27    28 ar  
    47    27    29 1   
    48    28    53 1   
    49    29    30 1   
    50    29    54 1   
    51    30    31 2   
    52    30    32 1   
    53    32    33 1   
    54    32    55 1   
    55    32    56 1   
    56    33    34 1   
    57    33    57 1   
    58    33    66 1   
    59    34    35 1   
    60    34    58 1   
    61    34    59 1   
    62    35    36 1   
    63    35    37 1   
    64    36    60 1   
    65    36    61 1   
    66    36    62 1   
    67    37    63 1   
    68    37    64 1   
    69    37    65 1   
@<TRIPOS>SUBSTRUCTURE
     1 0F0         1 TEMP              0 ****  ****    0 ROOT
