@<TRIPOS>MOLECULE
0F0
   66    69     1     0     0
SMALL
No Charge or Current Charge


@<TRIPOS>ATOM
      1 C01        -10.9750     0.2490     0.6090 ca         1 0F0       0.359900
      2 N02        -12.1720     0.5290     0.0440 nb         1 0F0      -0.671000
      3 C03        -12.2240     0.6550    -1.3000 ca         1 0F0       0.349900
      4 C04        -11.0960     0.5120    -2.1200 ca         1 0F0      -0.174000
      5 C05         -9.8550     0.2240    -1.5330 ca         1 0F0      -0.028000
      6 C06         -9.7700     0.0790    -0.1230 cp         1 0F0      -0.214500
      7 C07         -8.4720    -0.2270     0.5650 cp         1 0F0       0.234500
      8 N08         -7.3380    -0.0480    -0.1420 nb         1 0F0      -0.259000
      9 C09         -8.3900    -0.6980     1.8990 ca         1 0F0      -0.269000
     10 C10         -7.1210    -0.9520     2.4400 ca         1 0F0       0.149900
     11 N11         -6.0020    -0.7630     1.7180 nb         1 0F0      -0.231000
     12 C12         -6.1690    -0.3300     0.4560 ca         1 0F0       0.393900
     13 N13         -5.0470    -0.0880    -0.3260 nu         1 0F0      -0.924900
     14 C14         -3.6750    -0.3310    -0.1810 ca         1 0F0       0.295000
     15 C15         -3.1720    -1.3790     0.6130 ca         1 0F0      -0.128500
     16 C16         -1.7850    -1.5940     0.7170 ca         1 0F0      -0.111500
     17 C17         -2.7680     0.4770    -0.8870 ca         1 0F0      -0.128500
     18 C18         -1.3810     0.2660    -0.7850 ca         1 0F0      -0.111500
     19 C19         -0.8750    -0.7720     0.0270 ca         1 0F0      -0.052000
     20 N20          0.5120    -1.0530     0.1800 ns         1 0F0      -0.143000
     21 C21          1.6600    -0.4030    -0.2630 c          1 0F0       0.614700
     22 O22          1.6340     0.6400    -0.9080 o          1 0F0      -0.570100
     23 C23          2.9790    -1.0640     0.1090 ca         1 0F0      -0.126600
     24 C24          3.0350    -2.2670     0.8560 ca         1 0F0      -0.119000
     25 C25          4.2710    -2.8450     1.1830 ca         1 0F0      -0.089000
     26 C26          5.4660    -2.2380     0.7720 ca         1 0F0      -0.153000
     27 C27          5.4430    -1.0480     0.0260 ca         1 0F0      -0.021000
     28 C28          4.1970    -0.4650    -0.2980 ca         1 0F0      -0.084000
     29 N29          6.6970    -0.4910    -0.3520 ns         1 0F0      -0.151000
     30 C30          7.0400     0.5980    -1.1430 c          1 0F0       0.605100
     31 O31          6.2320     1.3080    -1.7290 o          1 0F0      -0.563100
     32 C32          8.5510     0.8350    -1.2700 c3         1 0F0      -0.158400
     33 C33          9.0040     2.0800    -0.4680 c3         1 0F0      -0.068400
     34 C34         10.5240     2.3470    -0.5780 c3         1 0F0       0.166800
     35 N35         10.9820     3.6120     0.0500 n3         1 0F0      -0.710600
     36 C36         10.7540     3.6740     1.5140 c3         1 0F0       0.149600
     37 C37         12.3850     3.9280    -0.3010 c3         1 0F0       0.149600
     38 H1         -10.9870     0.1720     1.6940 h4         1 0F0       0.020100
     39 H2         -13.1990     0.8800    -1.7310 h4         1 0F0       0.021100
     40 H3         -11.1890     0.6240    -3.1960 ha         1 0F0       0.127000
     41 H4          -8.9780     0.1070    -2.1680 ha         1 0F0       0.139000
     42 H5          -9.2750    -0.8750     2.5020 ha         1 0F0       0.138000
     43 H6          -6.9970    -1.3130     3.4600 h4         1 0F0       0.023100
     44 H7          -5.2780     0.4490    -1.1620 hn         1 0F0       0.510000
     45 H8          -3.8460    -2.0450     1.1390 ha         1 0F0       0.131500
     46 H9          -1.4200    -2.4100     1.3380 ha         1 0F0       0.126500
     47 H10         -3.1380     1.2820    -1.5170 ha         1 0F0       0.131500
     48 H11         -0.7220     0.9170    -1.3510 ha         1 0F0       0.126500
     49 H12          0.6970    -1.8910     0.7140 hn         1 0F0       0.153000
     50 H13          2.1320    -2.7700     1.1930 ha         1 0F0       0.118000
     51 H14          4.3020    -3.7680     1.7580 ha         1 0F0       0.117000
     52 H15          6.4160    -2.7000     1.0350 ha         1 0F0       0.111000
     53 H16          4.1550     0.4600    -0.8650 ha         1 0F0       0.170000
     54 H17          7.4920    -0.9830     0.0360 hn         1 0F0       0.148000
     55 H18          9.1010    -0.0380    -0.8970 hc         1 0F0       0.057200
     56 H19          8.7910     0.9980    -2.3280 hc         1 0F0       0.057200
     57 H20          8.4620     2.9630    -0.8290 hc         1 0F0       0.065200
     58 H21         11.0630     1.4960    -0.1410 h1         1 0F0       0.026200
     59 H22         10.7760     2.3690    -1.6470 h1         1 0F0       0.026200
     60 H24         11.2800     2.8580     2.0280 h1         1 0F0       0.030700
     61 H25         11.1210     4.6260     1.9220 h1         1 0F0       0.030700
     62 H26          9.6860     3.6060     1.7550 h1         1 0F0       0.030700
     63 H27         12.5150     3.9630    -1.3910 h1         1 0F0       0.030700
     64 H28         12.6770     4.9060     0.1040 h1         1 0F0       0.030700
     65 H29         13.0700     3.1700     0.1030 h1         1 0F0       0.030700
     66 H30          8.7290     1.9400     0.5850 hc         1 0F0       0.065200
@<TRIPOS>BOND
     1     1     2 ar  
     2     1     6 ar  
     3     1    38 1   
     4     2     3 ar  
     5     3     4 ar  
     6     3    39 1   
     7     4     5 ar  
     8     4    40 1   
     9     5     6 ar  
    10     5    41 1   
    11     6     7 1   
    12     7     8 ar  
    13     7     9 ar  
    14     8    12 ar  
    15     9    10 ar  
    16     9    42 1   
    17    10    11 ar  
    18    10    43 1   
    19    11    12 ar  
    20    12    13 1   
    21    13    14 1   
    22    13    44 1   
    23    14    15 ar  
    24    14    17 ar  
    25    15    16 ar  
    26    15    45 1   
    27    16    19 ar  
    28    16    46 1   
    29    17    18 ar  
    30    17    47 1   
    31    18    19 ar  
    32    18    48 1   
    33    19    20 1   
    34    20    21 1   
    35    20    49 1   
    36    21    22 2   
    37    21    23 1   
    38    23    24 ar  
    39    23    28 ar  
    40    24    25 ar  
    41    24    50 1   
    42    25    26 ar  
    43    25    51 1   
    44    26    27 ar  
    45    26    52 1   
    46    27    28 ar  
    47    27    29 1   
    48    28    53 1   
    49    29    30 1   
    50    29    54 1   
    51    30    31 2   
    52    30    32 1   
    53    32    33 1   
    54    32    55 1   
    55    32    56 1   
    56    33    34 1   
    57    33    57 1   
    58    33    66 1   
    59    34    35 1   
    60    34    58 1   
    61    34    59 1   
    62    35    36 1   
    63    35    37 1   
    64    36    60 1   
    65    36    61 1   
    66    36    62 1   
    67    37    63 1   
    68    37    64 1   
    69    37    65 1   
@<TRIPOS>SUBSTRUCTURE
     1 0F0         1 TEMP              0 ****  ****    0 ROOT
