@<TRIPOS>MOLECULE
0F1
   17    18     1     0     0
SMALL
bcc


@<TRIPOS>ATOM
      1 CL1         -4.6250    -0.4170     0.0150 cl         1 0F1      -0.156400
      2 C2          -2.9390    -0.0190     0.0170 ca         1 0F1       0.012400
      3 C1          -2.5680     1.3310     0.0210 ca         1 0F1      -0.147000
      4 C6          -1.2340     1.6740     0.0220 ca         1 0F1      -0.087000
      5 C3          -2.0090    -1.0370     0.0140 ca         1 0F1      -0.087000
      6 C4          -0.6640    -0.6770     0.0170 ca         1 0F1      -0.079100
      7 C5          -0.2640     0.6690     0.0210 ca         1 0F1      -0.056800
      8 C8           1.1660     0.7770     0.0220 cc         1 0F1      -0.009800
      9 CL2          1.9190     2.3180     0.0280 cl         1 0F1      -0.096400
     10 S            0.6980    -1.7450     0.0140 ss         1 0F1       0.002500
     11 C7           1.8120    -0.4140     0.0190 cd         1 0F1      -0.052600
     12 C9           3.2780    -0.7820     0.0190 c          1 0F1       0.942800
     13 O1           3.4840    -2.0100     0.0200 o          1 0F1      -0.795300
     14 O2           4.0990     0.1450     0.0180 o          1 0F1      -0.795300
     15 H1          -3.3290     2.0990     0.0220 ha         1 0F1       0.129000
     16 H2          -0.9460     2.7170     0.0260 ha         1 0F1       0.136000
     17 H3          -2.3130    -2.0760     0.0110 ha         1 0F1       0.141000
@<TRIPOS>BOND
     1     1     2 1   
     2     2     3 ar  
     3     2     5 ar  
     4     3     4 ar  
     5     3    15 1   
     6     4     7 ar  
     7     4    16 1   
     8     5     6 ar  
     9     5    17 1   
    10     6     7 ar  
    11     6    10 1   
    12     7     8 1   
    13     8     9 1   
    14     8    11 2   
    15    10    11 1   
    16    11    12 1   
    17    12    13 1   
    18    12    14 1   
@<TRIPOS>SUBSTRUCTURE
     1 0F1         1 TEMP              0 ****  ****    0 ROOT
