@<TRIPOS>MOLECULE
0F1
   17    18     1     0     0
SMALL
No Charge or Current Charge


@<TRIPOS>ATOM
      1 Cl1         -4.7140    -0.3800     0.0140 cl         1 0F1      -0.248000
      2 C2          -2.9970     0.0020     0.0170 ca         1 0F1       0.104000
      3 C1          -2.5780     1.3480     0.0210 ca         1 0F1      -0.129000
      4 C6          -1.2040     1.6620     0.0230 ca         1 0F1      -0.069000
      5 C3          -2.0470    -1.0370     0.0150 ca         1 0F1      -0.069000
      6 C4          -0.6830    -0.7020     0.0170 ca         1 0F1      -0.206000
      7 C5          -0.2630     0.6140     0.0200 ca         1 0F1      -0.056800
      8 C8           1.1810     0.7480     0.0220 cc         1 0F1       0.065800
      9 Cl2          1.9370     2.3220     0.0270 cl         1 0F1      -0.172000
     10 S            0.6560    -1.8640     0.0150 ss         1 0F1       0.129400
     11 C7           1.8120    -0.4970     0.0190 cd         1 0F1      -0.052600
     12 C9           3.2860    -0.7390     0.0190 c          1 0F1       0.732200
     13 O1           3.6760    -1.8990     0.0160 o          1 0F1      -0.690000
     14 O2           4.0670     0.2030     0.0220 o          1 0F1      -0.690000
     15 H1          -3.3160     2.1450     0.0220 ha         1 0F1       0.111000
     16 H2          -0.8840     2.7010     0.0260 ha         1 0F1       0.118000
     17 H3          -2.3660    -2.0760     0.0120 ha         1 0F1       0.123000
@<TRIPOS>BOND
     1     1     2 1   
     2     2     3 ar  
     3     2     5 ar  
     4     3     4 ar  
     5     3    15 1   
     6     4     7 ar  
     7     4    16 1   
     8     5     6 ar  
     9     5    17 1   
    10     6     7 ar  
    11     6    10 1   
    12     7     8 1   
    13     8     9 1   
    14     8    11 2   
    15    10    11 1   
    16    11    12 1   
    17    12    13 1   
    18    12    14 1   
@<TRIPOS>SUBSTRUCTURE
     1 0F1         1 TEMP              0 ****  ****    0 ROOT
