@<TRIPOS>MOLECULE
0F2
   62    66     1     0     0
SMALL
No Charge or Current Charge


@<TRIPOS>ATOM
      1 CAN         -4.3350     4.1530     1.3190 c6         1 0F2       0.126300
      2 CAO         -4.1720     5.2960     0.2730 c6         1 0F2       0.153100
      3 OAP         -4.8770     4.9630    -0.9470 os         1 0F2      -0.451000
      4 CAQ         -4.4120     3.7260    -1.5380 c6         1 0F2       0.153100
      5 CAR         -4.5760     2.5480    -0.5320 c6         1 0F2       0.126300
      6 NAM         -3.8950     2.8310     0.7720 n3         1 0F2      -0.701600
      7 CAL         -4.0180     1.7310     1.7730 c3         1 0F2       0.168800
      8 CAK         -3.4350     0.3520     1.3600 c3         1 0F2       0.163600
      9 OAJ         -2.0290     0.5000     1.0850 os         1 0F2      -0.319100
     10 CAD         -1.2470    -0.5630     0.6800 ca         1 0F2       0.200100
     11 CAA         -1.7480    -1.8780     0.5220 ca         1 0F2      -0.245000
     12 CAB         -0.9030    -2.9450     0.1000 ca         1 0F2      -0.045300
     13 CAS         -1.4960    -4.3700    -0.0680 c3         1 0F2       0.232300
     14 CBB         -2.0500    -4.8660     1.3070 c3         1 0F2      -0.079900
     15 CBD         -2.6000    -6.3140     1.3500 c3         1 0F2      -0.085600
     16 CBC         -2.6020    -4.3740    -1.1680 c3         1 0F2      -0.079900
     17 CBE         -2.1690    -3.7960    -2.5370 c3         1 0F2      -0.085600
     18 OBF         -0.4820    -5.2990    -0.4740 oh         1 0F2      -0.656000
     19 CAC          0.4650    -2.6610    -0.1710 ca         1 0F2      -0.159000
     20 CAF          0.9350    -1.3530    -0.0060 ca         1 0F2      -0.011200
     21 NAG          2.2220    -0.8850    -0.2210 na         1 0F2      -0.214700
     22 CAE          0.1070    -0.3450     0.4060 ca         1 0F2      -0.136800
     23 CAI          0.8870     0.8570     0.4680 cc         1 0F2      -0.159200
     24 CAH          2.1720     0.4970     0.0800 cd         1 0F2      -0.131900
     25 CAT          3.2770     1.4220     0.0040 cd         1 0F2       0.372800
     26 CAW          4.5910     1.0960    -0.3850 cd         1 0F2      -0.274000
     27 S1           5.5020    -0.3160    -0.9020 ss         1 0F2       0.196000
     28 CAZ          6.9570     0.7430    -1.0360 cd         1 0F2      -0.189000
     29 CAY          6.6850     2.0580    -0.6950 cc         1 0F2      -0.119000
     30 CAX          5.3320     2.1860    -0.3380 cc         1 0F2      -0.110000
     31 NAV          4.4920     3.2050     0.0800 na         1 0F2       0.009800
     32 NAU          3.1870     2.7240     0.2980 nc         1 0F2      -0.480800
     33 H1          -3.7490     4.4090     2.2140 h1         1 0F2       0.039450
     34 H2          -5.3900     4.1060     1.6260 h1         1 0F2       0.039450
     35 H3          -4.5760     6.2340     0.6780 h1         1 0F2       0.052200
     36 H4          -3.1070     5.4500     0.0470 h1         1 0F2       0.052200
     37 H5          -4.9910     3.5220    -2.4510 h1         1 0F2       0.052200
     38 H6          -3.3550     3.8330    -1.8200 h1         1 0F2       0.052200
     39 H7          -5.6500     2.3680    -0.3710 h1         1 0F2       0.039450
     40 H8          -4.1630     1.6420    -0.9970 h1         1 0F2       0.039450
     41 H10         -3.5170     2.0300     2.7040 h1         1 0F2       0.042200
     42 H11         -5.0770     1.5840     2.0250 h1         1 0F2       0.042200
     43 H12         -3.5900    -0.3570     2.1830 h1         1 0F2       0.034200
     44 H13         -3.9670    -0.0260     0.4790 h1         1 0F2       0.034200
     45 H14         -2.7940    -2.0840     0.7190 ha         1 0F2       0.111000
     46 H15         -1.2530    -4.7800     2.0570 hc         1 0F2       0.043700
     47 H16         -2.8500    -4.1970     1.6410 hc         1 0F2       0.043700
     48 H17         -1.8380    -7.0420     1.0470 hc         1 0F2       0.035867
     49 H18         -2.9160    -6.5650     2.3690 hc         1 0F2       0.035867
     50 H19         -3.4720    -6.4270     0.6950 hc         1 0F2       0.035867
     51 H20         -2.9500    -5.4010    -1.3330 hc         1 0F2       0.043700
     52 H21         -3.4730    -3.8100    -0.8130 hc         1 0F2       0.043700
     53 H22         -1.3110    -4.3450    -2.9420 hc         1 0F2       0.035867
     54 H23         -2.9910    -3.8720    -3.2580 hc         1 0F2       0.035867
     55 H24         -1.8940    -2.7380    -2.4500 hc         1 0F2       0.035867
     56 H25          0.1780    -5.3180     0.2490 ho         1 0F2       0.441000
     57 H26          1.1530    -3.4290    -0.5120 ha         1 0F2       0.122000
     58 H27          3.0250    -1.4210    -0.5300 hn         1 0F2       0.351000
     59 H28          0.5530     1.8520     0.7550 ha         1 0F2       0.223000
     60 H29          7.9020     0.3210    -1.3550 h4         1 0F2       0.150000
     61 H30          7.3990     2.8780    -0.6980 ha         1 0F2       0.143000
     62 H31          4.7410     4.1820     0.2240 hn         1 0F2       0.381000
@<TRIPOS>BOND
     1     1     2 1   
     2     1     6 1   
     3     1    33 1   
     4     1    34 1   
     5     2     3 1   
     6     2    35 1   
     7     2    36 1   
     8     3     4 1   
     9     4     5 1   
    10     4    37 1   
    11     4    38 1   
    12     5     6 1   
    13     5    39 1   
    14     5    40 1   
    15     6     7 1   
    16     7     8 1   
    17     7    41 1   
    18     7    42 1   
    19     8     9 1   
    20     8    43 1   
    21     8    44 1   
    22     9    10 1   
    23    10    11 ar  
    24    10    22 ar  
    25    11    12 ar  
    26    11    45 1   
    27    12    13 1   
    28    12    19 ar  
    29    13    14 1   
    30    13    16 1   
    31    13    18 1   
    32    14    15 1   
    33    14    46 1   
    34    14    47 1   
    35    15    48 1   
    36    15    49 1   
    37    15    50 1   
    38    16    17 1   
    39    16    51 1   
    40    16    52 1   
    41    17    53 1   
    42    17    54 1   
    43    17    55 1   
    44    18    56 1   
    45    19    20 ar  
    46    19    57 1   
    47    20    21 1   
    48    20    22 ar  
    49    21    24 1   
    50    21    58 1   
    51    22    23 1   
    52    23    24 2   
    53    23    59 1   
    54    24    25 1   
    55    25    26 1   
    56    25    32 2   
    57    26    27 1   
    58    26    30 2   
    59    27    28 1   
    60    28    29 2   
    61    28    60 1   
    62    29    30 1   
    63    29    61 1   
    64    30    31 1   
    65    31    32 1   
    66    31    62 1   
@<TRIPOS>SUBSTRUCTURE
     1 0F2         1 TEMP              0 ****  ****    0 ROOT
