@<TRIPOS>MOLECULE
0F2
   62    66     1     0     0
SMALL
bcc


@<TRIPOS>ATOM
      1 CAN         -4.2670     4.0090     1.3450 c6         1 0F2       0.126300
      2 CAO         -4.1410     5.0960     0.2960 c6         1 0F2       0.129900
      3 OAP         -4.9400     4.8230    -0.8340 os         1 0F2      -0.404600
      4 CAQ         -4.5990     3.5740    -1.3930 c6         1 0F2       0.129900
      5 CAR         -4.7290     2.4490    -0.3840 c6         1 0F2       0.126300
      6 NAM         -3.9070     2.7210     0.7800 n3         1 0F2      -0.701600
      7 CAL         -3.9750     1.6770     1.7800 c3         1 0F2       0.168800
      8 CAK         -3.3880     0.3560     1.3360 c3         1 0F2       0.140400
      9 OAJ         -2.0250     0.5560     1.0140 os         1 0F2      -0.295900
     10 CAD         -1.2920    -0.4970     0.6130 ca         1 0F2       0.200100
     11 CAA         -1.7540    -1.7920     0.4770 ca         1 0F2      -0.263000
     12 CAB         -0.9120    -2.8400     0.0360 ca         1 0F2      -0.045300
     13 CAS         -1.4990    -4.2440    -0.0990 c3         1 0F2       0.209100
     14 CBB         -2.0450    -4.6970     1.2700 c3         1 0F2      -0.079900
     15 CBD         -2.5510    -6.1330     1.3210 c3         1 0F2      -0.085600
     16 CBC         -2.6010    -4.2480    -1.1670 c3         1 0F2      -0.079900
     17 CBE         -2.1530    -3.7670    -2.5400 c3         1 0F2      -0.085600
     18 OBF         -0.5210    -5.1600    -0.5470 oh         1 0F2      -0.593800
     19 CAC          0.4100    -2.5910    -0.2690 ca         1 0F2      -0.177000
     20 CAF          0.8720    -1.2800    -0.1160 ca         1 0F2      -0.011200
     21 NAG          2.1150    -0.7630    -0.3330 na         1 0F2      -0.164400
     22 CAE          0.0540    -0.2230     0.3100 ca         1 0F2      -0.136800
     23 CAI          0.8520     0.9560     0.3320 cc         1 0F2      -0.109200
     24 CAH          2.1080     0.5860    -0.0720 cd         1 0F2      -0.131900
     25 CAT          3.3070     1.3850    -0.2130 cd         1 0F2       0.438100
     26 CAW          4.6530     0.9700    -0.2910 cd         1 0F2      -0.194400
     27 S1           5.6840    -0.4100    -0.2690 ss         1 0F2      -0.093800
     28 CAZ          7.0810     0.6120    -0.4200 cd         1 0F2      -0.062100
     29 CAY          6.8000     1.9380    -0.4750 cc         1 0F2      -0.137000
     30 CAX          5.3930     2.1360    -0.3970 cc         1 0F2      -0.059300
     31 NAV          4.5030     3.1460    -0.3750 na         1 0F2       0.009400
     32 NAU          3.2510     2.7080    -0.2710 nc         1 0F2      -0.480800
     33 H1          -3.5970     4.2430     2.1760 h1         1 0F2       0.039450
     34 H2          -5.2950     4.0060     1.7500 h1         1 0F2       0.039450
     35 H3          -4.4700     6.0530     0.7060 h1         1 0F2       0.052200
     36 H4          -3.0870     5.1990     0.0040 h1         1 0F2       0.052200
     37 H5          -5.2690     3.3980    -2.2360 h1         1 0F2       0.052200
     38 H6          -3.5700     3.5950    -1.7780 h1         1 0F2       0.052200
     39 H7          -5.7910     2.3140    -0.1100 h1         1 0F2       0.039450
     40 H8          -4.4050     1.5250    -0.8670 h1         1 0F2       0.039450
     41 H10         -3.4360     2.0190     2.6680 h1         1 0F2       0.042200
     42 H11         -5.0110     1.4760     2.1040 h1         1 0F2       0.042200
     43 H12         -3.4940    -0.3630     2.1560 h1         1 0F2       0.034200
     44 H13         -3.9300    -0.0540     0.4770 h1         1 0F2       0.034200
     45 H14         -2.7860    -2.0180     0.7070 ha         1 0F2       0.129000
     46 H15         -1.2510    -4.5690     2.0140 hc         1 0F2       0.043700
     47 H16         -2.8480    -4.0240     1.5800 hc         1 0F2       0.043700
     48 H17         -1.7660    -6.8510     1.0840 hc         1 0F2       0.035867
     49 H18         -2.9150    -6.3640     2.3230 hc         1 0F2       0.035867
     50 H19         -3.3760    -6.3040     0.6290 hc         1 0F2       0.035867
     51 H20         -3.0010    -5.2620    -1.2530 hc         1 0F2       0.043700
     52 H21         -3.4310    -3.6300    -0.8150 hc         1 0F2       0.043700
     53 H22         -1.3310    -4.3680    -2.9280 hc         1 0F2       0.035867
     54 H23         -2.9760    -3.8370    -3.2510 hc         1 0F2       0.035867
     55 H24         -1.8250    -2.7280    -2.5150 hc         1 0F2       0.035867
     56 H25          0.1260    -5.2930     0.1550 ho         1 0F2       0.402000
     57 H26          1.0710    -3.3670    -0.6280 ha         1 0F2       0.140000
     58 H27          2.8830    -1.2820    -0.7270 hn         1 0F2       0.300700
     59 H28          0.5510     1.9480     0.6260 ha         1 0F2       0.173000
     60 H29          8.0580     0.1540    -0.4570 h4         1 0F2       0.168000
     61 H30          7.5460     2.7140    -0.5630 ha         1 0F2       0.161000
     62 H31          4.6820     4.1350    -0.4360 hn         1 0F2       0.330700
@<TRIPOS>BOND
     1     1     2 1   
     2     1     6 1   
     3     1    33 1   
     4     1    34 1   
     5     2     3 1   
     6     2    35 1   
     7     2    36 1   
     8     3     4 1   
     9     4     5 1   
    10     4    37 1   
    11     4    38 1   
    12     5     6 1   
    13     5    39 1   
    14     5    40 1   
    15     6     7 1   
    16     7     8 1   
    17     7    41 1   
    18     7    42 1   
    19     8     9 1   
    20     8    43 1   
    21     8    44 1   
    22     9    10 1   
    23    10    11 ar  
    24    10    22 ar  
    25    11    12 ar  
    26    11    45 1   
    27    12    13 1   
    28    12    19 ar  
    29    13    14 1   
    30    13    16 1   
    31    13    18 1   
    32    14    15 1   
    33    14    46 1   
    34    14    47 1   
    35    15    48 1   
    36    15    49 1   
    37    15    50 1   
    38    16    17 1   
    39    16    51 1   
    40    16    52 1   
    41    17    53 1   
    42    17    54 1   
    43    17    55 1   
    44    18    56 1   
    45    19    20 ar  
    46    19    57 1   
    47    20    21 1   
    48    20    22 ar  
    49    21    24 1   
    50    21    58 1   
    51    22    23 1   
    52    23    24 2   
    53    23    59 1   
    54    24    25 1   
    55    25    26 1   
    56    25    32 2   
    57    26    27 1   
    58    26    30 2   
    59    27    28 1   
    60    28    29 2   
    61    28    60 1   
    62    29    30 1   
    63    29    61 1   
    64    30    31 1   
    65    31    32 1   
    66    31    62 1   
@<TRIPOS>SUBSTRUCTURE
     1 0F2         1 TEMP              0 ****  ****    0 ROOT
