@<TRIPOS>MOLECULE
0F3
   24    24     1     0     0
SMALL
No Charge or Current Charge


@<TRIPOS>ATOM
      1 S1           3.7080    -0.2130    -0.2780 sy         1 0F3       1.146600
      2 O1           4.3870     1.0440    -0.5810 o          1 0F3      -0.526000
      3 O2           4.0640    -1.4860    -0.9050 o          1 0F3      -0.526000
      4 N1           3.9740    -0.4300     1.3200 n8         1 0F3      -1.000100
      5 C1          -0.0070     1.5050    -0.2830 ca         1 0F3      -0.143000
      6 C2           1.3870     1.3290    -0.2590 ca         1 0F3      -0.001000
      7 C3           1.9310     0.0280    -0.3040 ca         1 0F3      -0.329500
      8 C4           1.0710    -1.0860    -0.3790 ca         1 0F3      -0.001000
      9 C5          -0.3210    -0.8970    -0.4030 ca         1 0F3      -0.143000
     10 C6          -0.8670     0.3980    -0.3450 ca         1 0F3       0.299000
     11 N2          -2.2400     0.6080    -0.3810 nu         1 0F3      -0.873100
     12 S2          -3.3660    -0.2430     0.4200 s6         1 0F3       1.247200
     13 O3          -4.0070    -1.1700    -0.5010 o          1 0F3      -0.539000
     14 O4          -2.8280    -0.6460     1.7110 o          1 0F3      -0.539000
     15 N3          -4.3990     0.9530     0.6870 n8         1 0F3      -1.040100
     16 H1           4.6890     0.2730     1.4930 hn         1 0F3       0.477000
     17 H2           3.1340    -0.0290     1.7290 hn         1 0F3       0.477000
     18 H4           2.0340     2.2040    -0.2090 ha         1 0F3       0.142000
     19 H5           1.4740    -2.0980    -0.4220 ha         1 0F3       0.142000
     20 H6          -0.9720    -1.7640    -0.4730 ha         1 0F3       0.139000
     21 H7          -2.5540     1.5470    -0.1870 hn         1 0F3       0.497000
     22 H8          -4.6900     0.7380     1.6380 hn         1 0F3       0.478000
     23 H9          -5.2000     0.6150     0.1570 hn         1 0F3       0.478000
     24 H3          -0.4170     2.5110    -0.2530 ha         1 0F3       0.139000
@<TRIPOS>BOND
     1     1     2 2   
     2     1     3 2   
     3     1     4 1   
     4     1     7 1   
     5     4    16 1   
     6     4    17 1   
     7     5     6 ar  
     8     5    10 ar  
     9     5    24 1   
    10     6     7 ar  
    11     6    18 1   
    12     7     8 ar  
    13     8     9 ar  
    14     8    19 1   
    15     9    10 ar  
    16     9    20 1   
    17    10    11 1   
    18    11    12 1   
    19    11    21 1   
    20    12    13 2   
    21    12    14 2   
    22    12    15 1   
    23    15    22 1   
    24    15    23 1   
@<TRIPOS>SUBSTRUCTURE
     1 0F3         1 TEMP              0 ****  ****    0 ROOT
