@<TRIPOS>MOLECULE
0F3
   24    24     1     0     0
SMALL
bcc


@<TRIPOS>ATOM
      1 S1           3.5180    -0.0940     0.0320 sy         1 0F3       1.288200
      2 O1           4.1480     1.0790    -0.5500 o          1 0F3      -0.596800
      3 O2           3.9450    -1.4240    -0.3650 o          1 0F3      -0.596800
      4 N1           3.7570     0.0070     1.6530 n8         1 0F3      -0.889700
      5 C1          -0.1760     1.3610    -0.6270 ca         1 0F3      -0.161000
      6 C2           1.1900     1.2740    -0.4210 ca         1 0F3      -0.019000
      7 C3           1.7740     0.0250    -0.2640 ca         1 0F3      -0.329500
      8 C4           1.0100    -1.1320    -0.3350 ca         1 0F3      -0.019000
      9 C5          -0.3510    -1.0430    -0.5660 ca         1 0F3      -0.161000
     10 C6          -0.9510     0.2070    -0.7010 ca         1 0F3       0.160600
     11 N2          -2.3300     0.3180    -0.9800 nu         1 0F3      -0.679500
     12 S2          -3.4740    -0.1600     0.1290 s6         1 0F3       1.388800
     13 O3          -4.7590     0.0170    -0.5090 o          1 0F3      -0.609800
     14 O4          -3.0740    -1.4680     0.6050 o          1 0F3      -0.609800
     15 N3          -3.3740     0.9950     1.3040 n8         1 0F3      -0.929700
     16 H1           3.5020     0.9020     2.0550 hn         1 0F3       0.421800
     17 H2           3.3570    -0.7620     2.1790 hn         1 0F3       0.421800
     18 H4           1.7800     2.1800    -0.3800 ha         1 0F3       0.160000
     19 H5           1.4670    -2.1070    -0.2360 ha         1 0F3       0.160000
     20 H6          -0.9330    -1.9460    -0.6680 ha         1 0F3       0.157000
     21 H7          -2.5890     1.2110    -1.3900 hn         1 0F3       0.441800
     22 H8          -2.5820     0.8630     1.9250 hn         1 0F3       0.422800
     23 H9          -4.2320     1.0550     1.8430 hn         1 0F3       0.422800
     24 H3          -0.6370     2.3340    -0.7410 ha         1 0F3       0.157000
@<TRIPOS>BOND
     1     1     2 2   
     2     1     3 2   
     3     1     4 1   
     4     1     7 1   
     5     4    16 1   
     6     4    17 1   
     7     5     6 ar  
     8     5    10 ar  
     9     5    24 1   
    10     6     7 ar  
    11     6    18 1   
    12     7     8 ar  
    13     8     9 ar  
    14     8    19 1   
    15     9    10 ar  
    16     9    20 1   
    17    10    11 1   
    18    11    12 1   
    19    11    21 1   
    20    12    13 2   
    21    12    14 2   
    22    12    15 1   
    23    15    22 1   
    24    15    23 1   
@<TRIPOS>SUBSTRUCTURE
     1 0F3         1 TEMP              0 ****  ****    0 ROOT
