@<TRIPOS>MOLECULE
0F4
   57    61     1     0     0
SMALL
abcg2


@<TRIPOS>ATOM
      1 F1           9.7670     1.7400    -1.2110 f          1 0F4      -0.113333
      2 C2           9.6980     0.7340    -0.3250 c3         1 0F4       0.356300
      3 F3           9.9170    -0.3950    -1.0060 f          1 0F4      -0.113333
      4 F4          10.7300     0.8940     0.5130 f          1 0F4      -0.113333
      5 C5           8.3870     0.7280     0.3980 ca         1 0F4      -0.169300
      6 C6           8.1830     1.6180     1.4460 ca         1 0F4      -0.085000
      7 C7           6.9540     1.6270     2.0820 ca         1 0F4      -0.092000
      8 C8           5.9310     0.7740     1.6930 ca         1 0F4      -0.093000
      9 C9           6.1330    -0.1040     0.6290 ca         1 0F4      -0.013000
     10 N10          5.1770    -1.0190     0.1860 ns         1 0F4      -0.167000
     11 C11          3.8150    -0.8670     0.2460 c          1 0F4       0.669100
     12 O12          3.2690     0.0860     0.7700 o          1 0F4      -0.602100
     13 N13          3.1480    -1.9060    -0.3420 ns         1 0F4      -0.162000
     14 C14          1.7690    -2.0640    -0.4950 ca         1 0F4       0.027000
     15 C15          1.3490    -2.9790    -1.4660 ca         1 0F4      -0.204000
     16 C16         -0.0020    -3.2170    -1.6400 ca         1 0F4      -0.048000
     17 C17         -0.9580    -2.5620    -0.8790 ca         1 0F4      -0.188000
     18 C18         -0.5440    -1.6360     0.0800 ca         1 0F4       0.348000
     19 N19         -1.4260    -0.9700     0.9150 nu         1 0F4      -0.993000
     20 C20         -2.7620    -0.6750     0.7170 ca         1 0F4       0.355000
     21 C21         -3.5540    -0.4250     1.8480 ca         1 0F4      -0.202000
     22 C22         -4.8880    -0.0690     1.7300 ca         1 0F4      -0.024000
     23 C23         -5.4620     0.0260     0.4720 ca         1 0F4      -0.131800
     24 C24         -4.6600    -0.2260    -0.6460 ca         1 0F4       0.088600
     25 N25         -5.4320    -0.0570    -1.7840 ns         1 0F4      -0.392100
     26 C26         -6.7170     0.2890    -1.4840 c          1 0F4       0.584200
     27 O27         -7.5880     0.4870    -2.3260 o          1 0F4      -0.583000
     28 C28         -6.7940     0.3570    -0.0060 cc         1 0F4      -0.183400
     29 C29         -7.8660     0.6620     0.7710 cf         1 0F4       0.008800
     30 C30         -9.2080     1.0060     0.4570 cd         1 0F4      -0.215800
     31 C31        -10.2220     1.3040     1.3680 cc         1 0F4      -0.124000
     32 C32        -11.3790     1.5910     0.6330 cc         1 0F4      -0.202000
     33 C33        -11.0460     1.4600    -0.7060 cd         1 0F4      -0.159000
     34 N34         -9.7520     1.1120    -0.7940 na         1 0F4      -0.072000
     35 C36         -3.3260    -0.5630    -0.5620 ca         1 0F4      -0.196000
     36 C37          0.8210    -1.3930     0.2690 ca         1 0F4      -0.195000
     37 C38          7.3710    -0.1190    -0.0150 ca         1 0F4      -0.120000
     38 H6           8.9650     2.2900     1.7750 ha         1 0F4       0.133000
     39 H7           6.7870     2.3040     2.9090 ha         1 0F4       0.124000
     40 H8           4.9970     0.7920     2.2290 ha         1 0F4       0.148000
     41 HN10         5.5400    -1.7750    -0.3750 hn         1 0F4       0.149000
     42 HN13         3.7010    -2.6080    -0.8100 hn         1 0F4       0.149000
     43 H15          2.0770    -3.5030    -2.0740 ha         1 0F4       0.111000
     44 H16         -0.3210    -3.9380    -2.3810 ha         1 0F4       0.115000
     45 H17         -2.0040    -2.7960    -1.0160 ha         1 0F4       0.128000
     46 HN19        -1.0380    -0.6480     1.7880 hn         1 0F4       0.499000
     47 H21         -3.1110    -0.5160     2.8330 ha         1 0F4       0.116000
     48 H22         -5.4680     0.1210     2.6250 ha         1 0F4       0.117000
     49 HN25        -5.1030    -0.1850    -2.7280 hn         1 0F4       0.340500
     50 H29         -7.6860     0.6450     1.8410 ha         1 0F4       0.183000
     51 H31        -10.1120     1.3090     2.4420 ha         1 0F4       0.129000
     52 H32        -12.3480     1.8610     1.0200 ha         1 0F4       0.134000
     53 H33        -11.6500     1.5950    -1.5880 h4         1 0F4       0.149000
     54 H36         -2.7360    -0.7080    -1.4570 ha         1 0F4       0.132000
     55 H37          1.1220    -0.6820     1.0230 ha         1 0F4       0.146000
     56 H38          7.5220    -0.8020    -0.8410 ha         1 0F4       0.125000
     57 HN34        -9.2090     0.9390    -1.6380 hn         1 0F4       0.394000
@<TRIPOS>BOND
     1     1     2 1   
     2     2     3 1   
     3     2     4 1   
     4     2     5 1   
     5     5     6 ar  
     6     5    37 ar  
     7     6     7 ar  
     8     6    38 1   
     9     7     8 ar  
    10     7    39 1   
    11     8     9 ar  
    12     8    40 1   
    13     9    10 1   
    14     9    37 ar  
    15    10    11 1   
    16    10    41 1   
    17    11    12 2   
    18    11    13 1   
    19    13    14 1   
    20    13    42 1   
    21    14    15 ar  
    22    14    36 ar  
    23    15    16 ar  
    24    15    43 1   
    25    16    17 ar  
    26    16    44 1   
    27    17    18 ar  
    28    17    45 1   
    29    18    19 1   
    30    18    36 ar  
    31    19    20 1   
    32    19    46 1   
    33    20    21 ar  
    34    20    35 ar  
    35    21    22 ar  
    36    21    47 1   
    37    22    23 ar  
    38    22    48 1   
    39    23    24 ar  
    40    23    28 1   
    41    24    25 1   
    42    24    35 ar  
    43    25    26 1   
    44    25    49 1   
    45    26    27 2   
    46    26    28 1   
    47    28    29 2   
    48    29    30 1   
    49    29    50 1   
    50    30    31 2   
    51    30    34 1   
    52    31    32 1   
    53    31    51 1   
    54    32    33 2   
    55    32    52 1   
    56    33    34 1   
    57    33    53 1   
    58    34    57 1   
    59    35    54 1   
    60    36    55 1   
    61    37    56 1   
@<TRIPOS>SUBSTRUCTURE
     1 0F4         1 TEMP              0 ****  ****    0 ROOT
