@<TRIPOS>MOLECULE
0F4
   57    61     1     0     0
SMALL
No Charge or Current Charge


@<TRIPOS>ATOM
      1 F1          10.4310     0.7970    -1.1690 f          1 0F4      -0.113333
      2 C2          10.1710     0.0580    -0.0680 c3         1 0F4       0.356300
      3 F3          10.2570    -1.2420    -0.4340 f          1 0F4      -0.113333
      4 F4          11.1830     0.2790     0.8030 f          1 0F4      -0.113333
      5 C5           8.7990     0.4050     0.5260 ca         1 0F4      -0.169300
      6 C6           8.6780     1.3780     1.5400 ca         1 0F4      -0.085000
      7 C7           7.4170     1.6960     2.0700 ca         1 0F4      -0.092000
      8 C8           6.2630     1.0530     1.5920 ca         1 0F4      -0.093000
      9 C9           6.3610     0.0830     0.5710 ca         1 0F4      -0.013000
     10 N10          5.2410    -0.6080     0.0280 ns         1 0F4      -0.167000
     11 C11          3.8840    -0.5600     0.3130 c          1 0F4       0.669100
     12 O12          3.3840     0.1580     1.1710 o          1 0F4      -0.602100
     13 N13          3.1670    -1.4310    -0.4950 ns         1 0F4      -0.162000
     14 C14          1.7800    -1.7300    -0.5890 ca         1 0F4       0.027000
     15 C15          1.3960    -2.7360    -1.4940 ca         1 0F4      -0.204000
     16 C16          0.0470    -3.0930    -1.6400 ca         1 0F4      -0.048000
     17 C17         -0.9340    -2.4360    -0.8830 ca         1 0F4      -0.188000
     18 C18         -0.5710    -1.4160     0.0110 ca         1 0F4       0.348000
     19 N19         -1.5240    -0.7560     0.7860 nu         1 0F4      -0.993000
     20 C20         -2.8870    -0.5100     0.6290 ca         1 0F4       0.355000
     21 C21         -3.6620    -0.2400     1.7800 ca         1 0F4      -0.202000
     22 C22         -5.0450     0.0320     1.6840 ca         1 0F4      -0.024000
     23 C23         -5.6230     0.0350     0.4050 ca         1 0F4      -0.131800
     24 C24         -4.8520    -0.2140    -0.7140 ca         1 0F4       0.088600
     25 N25         -5.6940    -0.1250    -1.8160 ns         1 0F4      -0.392100
     26 C26         -6.9970     0.1670    -1.5220 c          1 0F4       0.584200
     27 O27         -7.9040     0.2900    -2.3340 o          1 0F4      -0.583000
     28 C28         -7.0000     0.2850    -0.0320 cc         1 0F4      -0.183400
     29 C29         -8.0610     0.5680     0.7920 cf         1 0F4       0.008800
     30 C30         -9.4730     0.8360     0.4950 cd         1 0F4      -0.215800
     31 C31        -10.4590     1.1100     1.4040 cc         1 0F4      -0.124000
     32 C32        -11.6750     1.3070     0.7270 cc         1 0F4      -0.202000
     33 C33        -11.4670     1.1590    -0.6140 cd         1 0F4      -0.159000
     34 N34        -10.1030     0.8670    -0.7580 na         1 0F4      -0.072000
     35 C36         -3.4860    -0.4850    -0.6460 ca         1 0F4      -0.196000
     36 C37          0.7810    -1.0760     0.1650 ca         1 0F4      -0.195000
     37 C38          7.6310    -0.2280     0.0460 ca         1 0F4      -0.120000
     38 H6           9.5570     1.8940     1.9210 ha         1 0F4       0.133000
     39 H7           7.3340     2.4460     2.8530 ha         1 0F4       0.124000
     40 H8           5.3070     1.3280     2.0260 ha         1 0F4       0.148000
     41 HN10         5.4860    -1.2580    -0.7080 hn         1 0F4       0.149000
     42 HN13         3.7360    -1.9570    -1.1440 hn         1 0F4       0.149000
     43 H15          2.1490    -3.2520    -2.0860 ha         1 0F4       0.111000
     44 H16         -0.2370    -3.8820    -2.3340 ha         1 0F4       0.115000
     45 H17         -1.9730    -2.7360    -0.9820 ha         1 0F4       0.128000
     46 HN19        -1.1450    -0.3700     1.6500 hn         1 0F4       0.499000
     47 H21         -3.1930    -0.2480     2.7600 ha         1 0F4       0.116000
     48 H22         -5.6330     0.2340     2.5750 ha         1 0F4       0.117000
     49 HN25        -5.3770    -0.2650    -2.7670 hn         1 0F4       0.340500
     50 H29         -7.8090     0.5990     1.8520 ha         1 0F4       0.183000
     51 H31        -10.3410     1.1700     2.4830 ha         1 0F4       0.129000
     52 H32        -12.6210     1.5400     1.2100 ha         1 0F4       0.134000
     53 H33        -12.1510     1.2340    -1.4530 h4         1 0F4       0.149000
     54 H36         -2.9080    -0.6500    -1.5490 ha         1 0F4       0.132000
     55 H37          1.0350    -0.2910     0.8670 ha         1 0F4       0.146000
     56 H38          7.7090    -0.9700    -0.7470 ha         1 0F4       0.125000
     57 HN34        -9.6220     0.6990    -1.6440 hn         1 0F4       0.394000
@<TRIPOS>BOND
     1     1     2 1   
     2     2     3 1   
     3     2     4 1   
     4     2     5 1   
     5     5     6 ar  
     6     5    37 ar  
     7     6     7 ar  
     8     6    38 1   
     9     7     8 ar  
    10     7    39 1   
    11     8     9 ar  
    12     8    40 1   
    13     9    10 1   
    14     9    37 ar  
    15    10    11 1   
    16    10    41 1   
    17    11    12 2   
    18    11    13 1   
    19    13    14 1   
    20    13    42 1   
    21    14    15 ar  
    22    14    36 ar  
    23    15    16 ar  
    24    15    43 1   
    25    16    17 ar  
    26    16    44 1   
    27    17    18 ar  
    28    17    45 1   
    29    18    19 1   
    30    18    36 ar  
    31    19    20 1   
    32    19    46 1   
    33    20    21 ar  
    34    20    35 ar  
    35    21    22 ar  
    36    21    47 1   
    37    22    23 ar  
    38    22    48 1   
    39    23    24 ar  
    40    23    28 1   
    41    24    25 1   
    42    24    35 ar  
    43    25    26 1   
    44    25    49 1   
    45    26    27 2   
    46    26    28 1   
    47    28    29 2   
    48    29    30 1   
    49    29    50 1   
    50    30    31 2   
    51    30    34 1   
    52    31    32 1   
    53    31    51 1   
    54    32    33 2   
    55    32    52 1   
    56    33    34 1   
    57    33    53 1   
    58    34    57 1   
    59    35    54 1   
    60    36    55 1   
    61    37    56 1   
@<TRIPOS>SUBSTRUCTURE
     1 0F4         1 TEMP              0 ****  ****    0 ROOT
