@<TRIPOS>MOLECULE
0F5
   49    52     1     0     0
SMALL
No Charge or Current Charge


@<TRIPOS>ATOM
      1 C10         -2.8270    -1.5280    -0.8020 ca         1 0F5      -0.064000
      2 C13         -3.9790     0.7190    -0.8430 ce         1 0F5      -0.024200
      3 C15         -6.4060     1.4580    -0.7690 c          1 0F5       0.585200
      4 C17         -7.5700    -0.2840     0.3690 c          1 0F5       0.595600
      5 C21          5.6310    -0.2150     0.5790 c6         1 0F5       0.239500
      6 C22          6.5310    -1.4770     0.5920 c6         1 0F5      -0.092900
      7 C24          8.3280    -0.2250    -0.7300 c6         1 0F5       0.162500
      8 C26          5.9250     0.6520    -0.6740 c6         1 0F5      -0.092900
      9 O19         -6.3410     2.5380    -1.3330 o          1 0F5      -0.491000
     10 N16         -7.5450     0.9200    -0.2620 ns         1 0F5      -0.479500
     11 O20         -8.5610    -0.8140     0.8440 o          1 0F5      -0.465000
     12 S18         -5.8710    -0.9210     0.3610 ss         1 0F5      -0.183200
     13 C14         -5.3020     0.5130    -0.5060 cd         1 0F5      -0.129600
     14 C12         -2.7860    -0.1380    -0.5870 ca         1 0F5      -0.094800
     15 C11         -1.5850     0.4600    -0.1590 ca         1 0F5      -0.063000
     16 C08         -1.6850    -2.3090    -0.5740 ca         1 0F5      -0.126000
     17 C09         -0.4940    -1.7100    -0.1340 ca         1 0F5      -0.046000
     18 C07         -0.4120    -0.3070     0.0870 cp         1 0F5      -0.149500
     19 C03          0.8690     0.3380     0.5560 cp         1 0F5       0.413500
     20 N02          2.0140    -0.3840     0.3910 nb         1 0F5      -0.744000
     21 C01          0.9060     1.6450     1.1640 ca         1 0F5       0.225900
     22 N05          2.0540     2.2400     1.5960 nb         1 0F5      -0.602000
     23 C06          3.1820     1.4980     1.4090 ca         1 0F5       0.223900
     24 C04          3.1460     0.1990     0.8070 ca         1 0F5       0.587900
     25 N28          4.2240    -0.6300     0.5880 nu         1 0F5      -0.931100
     26 C23          8.0330    -1.0970     0.5180 c6         1 0F5      -0.073400
     27 N27          9.7500     0.1570    -0.7670 n8         1 0F5      -0.997200
     28 C25          7.4260     1.0350    -0.7530 c6         1 0F5      -0.073400
     29 H1          -3.7360    -2.0030    -1.1630 ha         1 0F5       0.125000
     30 H2          -3.7630     1.6730    -1.3280 ha         1 0F5       0.202000
     31 H4           5.8590     0.3730     1.4820 h1         1 0F5       0.062700
     32 H6           6.2780    -2.1290    -0.2560 hc         1 0F5       0.048950
     33 H7           8.1300    -0.8210    -1.6340 h1         1 0F5       0.014700
     34 H8           5.6390     0.1050    -1.5830 hc         1 0F5       0.048950
     35 H9           5.3170     1.5660    -0.6550 hc         1 0F5       0.048950
     36 H10         -8.4060     1.4360    -0.3550 hn         1 0F5       0.351500
     37 H11         -1.5700     1.5380    -0.0240 ha         1 0F5       0.120000
     38 H12         -1.7210    -3.3830    -0.7420 ha         1 0F5       0.122000
     39 H13          0.3720    -2.3450     0.0390 ha         1 0F5       0.136000
     40 H14         -0.0050     2.2180     1.3200 h4         1 0F5       0.031100
     41 H15          4.1180     1.9420     1.7440 h4         1 0F5       0.030100
     42 H16          3.9570    -1.4810     0.1010 hn         1 0F5       0.496000
     43 H17          8.3200    -0.5560     1.4310 hc         1 0F5       0.052200
     44 H18          8.6410    -2.0120     0.4920 hc         1 0F5       0.052200
     45 H19         10.3170    -0.6950    -0.8480 hn         1 0F5       0.395500
     46 H20          9.9350     0.6490    -1.6490 hn         1 0F5       0.395500
     47 H22          7.6800     1.6940     0.0890 hc         1 0F5       0.052200
     48 H23          7.6090     1.6130    -1.6690 hc         1 0F5       0.052200
     49 H5           6.3430    -2.0600     1.5040 hc         1 0F5       0.048950
@<TRIPOS>BOND
     1     1    14 ar  
     2     1    16 ar  
     3     1    29 1   
     4     2    13 2   
     5     2    14 1   
     6     2    30 1   
     7     3     9 2   
     8     3    10 1   
     9     3    13 1   
    10     4    10 1   
    11     4    11 2   
    12     4    12 1   
    13     5     6 1   
    14     5     8 1   
    15     5    25 1   
    16     5    31 1   
    17     6    26 1   
    18     6    32 1   
    19     6    49 1   
    20     7    26 1   
    21     7    27 1   
    22     7    28 1   
    23     7    33 1   
    24     8    28 1   
    25     8    34 1   
    26     8    35 1   
    27    10    36 1   
    28    12    13 1   
    29    14    15 ar  
    30    15    18 ar  
    31    15    37 1   
    32    16    17 ar  
    33    16    38 1   
    34    17    18 ar  
    35    17    39 1   
    36    18    19 1   
    37    19    20 ar  
    38    19    21 ar  
    39    20    24 ar  
    40    21    22 ar  
    41    21    40 1   
    42    22    23 ar  
    43    23    24 ar  
    44    23    41 1   
    45    24    25 1   
    46    25    42 1   
    47    26    43 1   
    48    26    44 1   
    49    27    45 1   
    50    27    46 1   
    51    28    47 1   
    52    28    48 1   
@<TRIPOS>SUBSTRUCTURE
     1 0F5         1 TEMP              0 ****  ****    0 ROOT
