@<TRIPOS>MOLECULE
0F5
   49    52     1     0     0
SMALL
bcc


@<TRIPOS>ATOM
      1 C10         -2.9200    -1.5800    -0.3790 ca         1 0F5      -0.082000
      2 C13         -3.9670     0.7150    -0.4410 ce         1 0F5       0.025800
      3 C15         -6.2670     1.5650    -0.5680 c          1 0F5       0.727700
      4 C17         -7.7000    -0.2550    -0.1320 c          1 0F5       0.738100
      5 C21          5.5870    -0.2300     0.2910 c6         1 0F5       0.239500
      6 C22          6.5100    -1.4340     0.4420 c6         1 0F5      -0.092900
      7 C24          8.3990    -0.1390    -0.6290 c6         1 0F5       0.162500
      8 C26          6.0140     0.6310    -0.9000 c6         1 0F5      -0.092900
      9 O19         -6.0100     2.7180    -0.8170 o          1 0F5      -0.566500
     10 N16         -7.5400     1.0740    -0.4070 ns         1 0F5      -0.613500
     11 O20         -8.7370    -0.8340     0.0320 o          1 0F5      -0.540500
     12 S18         -6.1080    -1.0420    -0.0520 ss         1 0F5      -0.183200
     13 C14         -5.2830     0.4690    -0.3860 cd         1 0F5      -0.129600
     14 C12         -2.8400    -0.1880    -0.2750 ca         1 0F5      -0.094800
     15 C11         -1.5960     0.3920    -0.0090 ca         1 0F5      -0.081000
     16 C08         -1.7860    -2.3560    -0.2050 ca         1 0F5      -0.144000
     17 C09         -0.5640    -1.7680     0.0800 ca         1 0F5      -0.064000
     18 C07         -0.4570    -0.3810     0.1870 cp         1 0F5      -0.149500
     19 C03          0.8460     0.2430     0.4950 cp         1 0F5       0.413500
     20 N02          1.9370    -0.4530     0.1930 nb         1 0F5      -0.744000
     21 C01          0.9390     1.4930     1.0970 ca         1 0F5       0.225900
     22 N05          2.1260     2.0380     1.3500 nb         1 0F5      -0.602000
     23 C06          3.2090     1.3650     1.0400 ca         1 0F5       0.223900
     24 C04          3.1280     0.0730     0.4660 ca         1 0F5       0.587900
     25 N28          4.2140    -0.6790     0.1920 nu         1 0F5      -0.875900
     26 C23          7.9660    -0.9970     0.5550 c6         1 0F5      -0.073400
     27 N27          9.7680     0.3140    -0.4310 n8         1 0F5      -0.886800
     28 C25          7.4700     1.0620    -0.7700 c6         1 0F5      -0.073400
     29 H1          -3.8460    -2.0760    -0.6350 ha         1 0F5       0.143000
     30 H2          -3.7040     1.7540    -0.6130 ha         1 0F5       0.152000
     31 H4           5.6790     0.3690     1.2040 h1         1 0F5       0.062700
     32 H6           6.3870    -2.0920    -0.4260 hc         1 0F5       0.048950
     33 H7           8.2890    -0.7530    -1.5390 h1         1 0F5       0.014700
     34 H8           5.8730     0.0530    -1.8200 hc         1 0F5       0.048950
     35 H9           5.3670     1.5090    -0.9800 hc         1 0F5       0.048950
     36 H10         -8.3500     1.6740    -0.5020 hn         1 0F5       0.351500
     37 H11         -1.5290     1.4720     0.0300 ha         1 0F5       0.138000
     38 H12         -1.8570    -3.4310    -0.2950 ha         1 0F5       0.140000
     39 H13          0.3130    -2.3860     0.2180 ha         1 0F5       0.154000
     40 H14          0.0640     2.0590     1.3910 h4         1 0F5       0.031100
     41 H15          4.1610     1.8380     1.2450 h4         1 0F5       0.030100
     42 H16          4.0350    -1.5280    -0.3240 hn         1 0F5       0.440800
     43 H17          8.1110    -0.4240     1.4780 hc         1 0F5       0.052200
     44 H18          8.6080    -1.8790     0.6290 hc         1 0F5       0.052200
     45 H19         10.3820    -0.4890    -0.3580 hn         1 0F5       0.340300
     46 H20         10.0790     0.8160    -1.2540 hn         1 0F5       0.340300
     47 H22          7.5900     1.7040     0.1090 hc         1 0F5       0.052200
     48 H23          7.7580     1.6610    -1.6380 hc         1 0F5       0.052200
     49 H5           6.2210    -2.0120     1.3220 hc         1 0F5       0.048950
@<TRIPOS>BOND
     1     1    14 ar  
     2     1    16 ar  
     3     1    29 1   
     4     2    13 2   
     5     2    14 1   
     6     2    30 1   
     7     3     9 2   
     8     3    10 1   
     9     3    13 1   
    10     4    10 1   
    11     4    11 2   
    12     4    12 1   
    13     5     6 1   
    14     5     8 1   
    15     5    25 1   
    16     5    31 1   
    17     6    26 1   
    18     6    32 1   
    19     6    49 1   
    20     7    26 1   
    21     7    27 1   
    22     7    28 1   
    23     7    33 1   
    24     8    28 1   
    25     8    34 1   
    26     8    35 1   
    27    10    36 1   
    28    12    13 1   
    29    14    15 ar  
    30    15    18 ar  
    31    15    37 1   
    32    16    17 ar  
    33    16    38 1   
    34    17    18 ar  
    35    17    39 1   
    36    18    19 1   
    37    19    20 ar  
    38    19    21 ar  
    39    20    24 ar  
    40    21    22 ar  
    41    21    40 1   
    42    22    23 ar  
    43    23    24 ar  
    44    23    41 1   
    45    24    25 1   
    46    25    42 1   
    47    26    43 1   
    48    26    44 1   
    49    27    45 1   
    50    27    46 1   
    51    28    47 1   
    52    28    48 1   
@<TRIPOS>SUBSTRUCTURE
     1 0F5         1 TEMP              0 ****  ****    0 ROOT
