@<TRIPOS>MOLECULE
0F7
   71    71     1     0     0
SMALL
No Charge or Current Charge


@<TRIPOS>ATOM
      1 C1          32.5000   -44.5770     3.7680 c          1 0F7       0.636100
      2 O1          31.6580   -45.3010     3.2610 o          1 0F7      -0.546000
      3 O2          32.2920   -43.3160     4.2320 os         1 0F7      -0.457100
      4 C2          30.9670   -42.7750     4.1080 c3         1 0F7       0.229900
      5 C3          30.9680   -41.3650     4.6840 ca         1 0F7      -0.095300
      6 C4          30.6810   -41.1530     6.0480 ca         1 0F7      -0.084500
      7 C5          30.6810   -39.8520     6.5790 ca         1 0F7      -0.118000
      8 C6          30.9700   -38.7540     5.7510 ca         1 0F7      -0.103000
      9 C7          31.2590   -38.9580     4.3910 ca         1 0F7      -0.118000
     10 C8          31.2590   -40.2600     3.8590 ca         1 0F7      -0.084500
     11 N           33.8070   -44.9120     3.9760 ns         1 0F7      -0.484900
     12 CA          34.4250   -46.2100     3.6230 c3         1 0F7       0.050700
     13 C           35.2920   -46.6820     4.8280 c          1 0F7       0.593100
     14 O           35.9150   -45.9050     5.5440 o          1 0F7      -0.620100
     15 CB          35.2410   -46.1060     2.2880 c3         1 0F7      -0.065700
     16 CG1         34.3490   -45.6510     1.0910 c3         1 0F7      -0.077400
     17 CG2         36.0080   -47.4190     1.9630 c3         1 0F7      -0.096100
     18 CD1         35.0980   -45.4090    -0.2380 c3         1 0F7      -0.088100
     19 N1          35.3030   -48.0450     5.0450 ns         1 0F7      -0.472900
     20 CA1         36.0730   -48.7430     6.1000 c3         1 0F7       0.026700
     21 C9          36.7690   -49.9940     5.4940 c          1 0F7       0.588100
     22 O3          36.4310   -50.4950     4.4280 o          1 0F7      -0.618100
     23 CB1         35.1540   -49.1380     7.2910 c3         1 0F7      -0.084400
     24 CG          34.5500   -47.9590     8.1050 c3         1 0F7      -0.061700
     25 CD11        33.4710   -48.4650     9.0890 c3         1 0F7      -0.087600
     26 CD2         35.6290   -47.1430     8.8570 c3         1 0F7      -0.087600
     27 N2          37.8080   -50.5030     6.2460 ns         1 0F7      -0.476900
     28 CA2         38.6680   -51.6460     5.8570 c3         1 0F7      -0.009300
     29 CC          38.8260   -52.6220     7.0590 c          1 0F7       0.420100
     30 O4          38.6260   -52.2500     8.2220 o          1 0F7      -0.555100
     31 CB2         40.0540   -51.1790     5.3230 c3         1 0F7      -0.135400
     32 CG3         40.0500   -50.3650     4.0050 c3         1 0F7       0.178300
     33 F1          39.4660   -49.1580     4.1800 f          1 0F7      -0.129000
     34 F2          39.3610   -51.0210     3.0440 f          1 0F7      -0.129000
     35 CD          39.2530   -54.1410     6.7000 c          1 0F7       0.654000
     36 OE1         39.0970   -54.5380     5.5480 o          1 0F7      -0.683000
     37 OE2         39.7140   -54.8480     7.5940 o          1 0F7      -0.683000
     38 H21         30.6570   -42.7400     3.0550 h1         1 0F7       0.057700
     39 H22         30.2410   -43.3930     4.6530 h1         1 0F7       0.057700
     40 H41         30.4590   -41.9990     6.6960 ha         1 0F7       0.117000
     41 H51         30.4580   -39.6940     7.6320 ha         1 0F7       0.111500
     42 H61         30.9700   -37.7460     6.1620 ha         1 0F7       0.108000
     43 H71         31.4850   -38.1090     3.7500 ha         1 0F7       0.111500
     44 H81         31.4870   -40.4100     2.8060 ha         1 0F7       0.117000
     45 H           34.3730   -44.2140     4.4410 hn         1 0F7       0.333500
     46 HA          33.6270   -46.9530     3.4910 h1         1 0F7       0.074700
     47 HB          36.0010   -45.3270     2.4380 hc         1 0F7       0.058700
     48 HG12        33.5560   -46.3900     0.9240 hc         1 0F7       0.041200
     49 HG13        33.8490   -44.7100     1.3460 hc         1 0F7       0.041200
     50 HG21        36.6080   -47.3180     1.0520 hc         1 0F7       0.049367
     51 HG22        36.7100   -47.6830     2.7610 hc         1 0F7       0.049367
     52 HG23        35.3110   -48.2550     1.8220 hc         1 0F7       0.049367
     53 HD11        34.4260   -44.9470    -0.9710 hc         1 0F7       0.031033
     54 HD12        35.9520   -44.7370    -0.0880 hc         1 0F7       0.031033
     55 HD13        35.4620   -46.3490    -0.6700 hc         1 0F7       0.031033
     56 H1          34.7890   -48.6160     4.3830 hn         1 0F7       0.331500
     57 HA1         36.8780   -48.0880     6.4570 h1         1 0F7       0.086700
     58 HB2         34.3380   -49.7590     6.8990 hc         1 0F7       0.058700
     59 HB3         35.7160   -49.7800     7.9810 hc         1 0F7       0.058700
     60 HG          34.0470   -47.2810     7.4050 hc         1 0F7       0.063700
     61 HD14        33.9040   -49.1540     9.8240 hc         1 0F7       0.030367
     62 HD15        33.0160   -47.6260     9.6310 hc         1 0F7       0.030367
     63 HD16        32.6720   -48.9910     8.5530 hc         1 0F7       0.030367
     64 HD21        36.1770   -47.7780     9.5630 hc         1 0F7       0.030367
     65 HD22        36.3510   -46.6980     8.1640 hc         1 0F7       0.030367
     66 HD23        35.1670   -46.3240     9.4220 hc         1 0F7       0.030367
     67 H11         37.9940   -50.0500     7.1340 hn         1 0F7       0.316500
     68 HA2         38.1620   -52.2180     5.0660 h1         1 0F7       0.129700
     69 HB21        40.5610   -50.5910     6.0980 hc         1 0F7       0.073700
     70 HB1         40.6800   -52.0640     5.1560 hc         1 0F7       0.073700
     71 HG1         41.0770   -50.2080     3.6590 h2         1 0F7       0.033700
@<TRIPOS>BOND
     1     1     2 2   
     2     1     3 1   
     3     1    11 1   
     4     3     4 1   
     5     4     5 1   
     6     4    38 1   
     7     4    39 1   
     8     5     6 ar  
     9     5    10 ar  
    10     6     7 ar  
    11     6    40 1   
    12     7     8 ar  
    13     7    41 1   
    14     8     9 ar  
    15     8    42 1   
    16     9    10 ar  
    17     9    43 1   
    18    10    44 1   
    19    11    12 1   
    20    11    45 1   
    21    12    13 1   
    22    12    15 1   
    23    12    46 1   
    24    13    14 2   
    25    13    19 1   
    26    15    16 1   
    27    15    17 1   
    28    15    47 1   
    29    16    18 1   
    30    16    48 1   
    31    16    49 1   
    32    17    50 1   
    33    17    51 1   
    34    17    52 1   
    35    18    53 1   
    36    18    54 1   
    37    18    55 1   
    38    19    20 1   
    39    19    56 1   
    40    20    21 1   
    41    20    23 1   
    42    20    57 1   
    43    21    22 2   
    44    21    27 1   
    45    23    24 1   
    46    23    58 1   
    47    23    59 1   
    48    24    25 1   
    49    24    26 1   
    50    24    60 1   
    51    25    61 1   
    52    25    62 1   
    53    25    63 1   
    54    26    64 1   
    55    26    65 1   
    56    26    66 1   
    57    27    28 1   
    58    27    67 1   
    59    28    29 1   
    60    28    31 1   
    61    28    68 1   
    62    29    30 2   
    63    29    35 1   
    64    31    32 1   
    65    31    69 1   
    66    31    70 1   
    67    32    33 1   
    68    32    34 1   
    69    32    71 1   
    70    35    36 1   
    71    35    37 1   
@<TRIPOS>SUBSTRUCTURE
     1 0F7         1 TEMP              0 ****  ****    0 ROOT
