@<TRIPOS>MOLECULE
0F7
   71    71     1     0     0
SMALL
bcc


@<TRIPOS>ATOM
      1 C1          33.0860   -44.6730     4.5340 c          1 0F7       0.752100
      2 O1          32.5470   -45.6160     5.0780 o          1 0F7      -0.595000
      3 O2          32.6990   -43.4030     4.6780 os         1 0F7      -0.433900
      4 C2          31.5640   -43.1710     5.5230 c3         1 0F7       0.206700
      5 C3          31.1690   -41.7360     5.3580 ca         1 0F7      -0.095300
      6 C4          31.6030   -40.7710     6.2610 ca         1 0F7      -0.102500
      7 C5          31.2390   -39.4400     6.1010 ca         1 0F7      -0.136000
      8 C6          30.4390   -39.0630     5.0310 ca         1 0F7      -0.121000
      9 C7          30.0040   -40.0200     4.1220 ca         1 0F7      -0.136000
     10 C8          30.3680   -41.3480     4.2870 ca         1 0F7      -0.102500
     11 N           34.1360   -44.7780     3.6980 ns         1 0F7      -0.551900
     12 CA          34.7470   -46.0590     3.4410 c3         1 0F7       0.050700
     13 C           35.4480   -46.5660     4.7020 c          1 0F7       0.660100
     14 O           36.1880   -45.8380     5.3460 o          1 0F7      -0.620100
     15 CB          35.7450   -45.9450     2.2760 c3         1 0F7      -0.065700
     16 CG1         35.0100   -45.5880     0.9780 c3         1 0F7      -0.077400
     17 CG2         36.5480   -47.2330     2.1120 c3         1 0F7      -0.096100
     18 CD1         35.9350   -45.1390    -0.1450 c3         1 0F7      -0.088100
     19 N1          35.2010   -47.8500     5.0000 ns         1 0F7      -0.539900
     20 CA1         35.8610   -48.5940     6.0430 c3         1 0F7       0.026700
     21 C9          36.4770   -49.8500     5.4320 c          1 0F7       0.655100
     22 O3          35.9310   -50.4300     4.5060 o          1 0F7      -0.618100
     23 CB1         34.8870   -49.0170     7.1510 c3         1 0F7      -0.084400
     24 CG          34.2470   -47.8630     7.9220 c3         1 0F7      -0.061700
     25 CD11        33.1550   -48.4050     8.8410 c3         1 0F7      -0.087600
     26 CD2         35.2740   -47.0760     8.7290 c3         1 0F7      -0.087600
     27 N2          37.6030   -50.2700     6.0270 ns         1 0F7      -0.543900
     28 CA2         38.2640   -51.5080     5.7120 c3         1 0F7      -0.009300
     29 CC          38.4650   -52.3390     6.9760 c          1 0F7       0.420100
     30 O4          38.2700   -51.8690     8.0690 o          1 0F7      -0.555100
     31 CB2         39.6250   -51.2940     5.0330 c3         1 0F7      -0.135400
     32 CG3         39.5700   -50.7420     3.6330 c3         1 0F7       0.420900
     33 F1          39.0460   -49.4820     3.5990 f          1 0F7      -0.250300
     34 F2          38.7690   -51.5100     2.8380 f          1 0F7      -0.250300
     35 CD          38.9000   -53.8200     6.7810 c          1 0F7       0.864600
     36 OE1         38.6520   -54.2870     5.6570 o          1 0F7      -0.788300
     37 OE2         39.4280   -54.3570     7.7610 o          1 0F7      -0.788300
     38 H21         30.7420   -43.8290     5.2340 h1         1 0F7       0.057700
     39 H22         31.8240   -43.3870     6.5610 h1         1 0F7       0.057700
     40 H41         32.2230   -41.0610     7.1010 ha         1 0F7       0.135000
     41 H51         31.5770   -38.6990     6.8140 ha         1 0F7       0.129500
     42 H61         30.1510   -38.0270     4.9070 ha         1 0F7       0.126000
     43 H71         29.3770   -39.7320     3.2890 ha         1 0F7       0.129500
     44 H81         30.0180   -42.0930     3.5820 ha         1 0F7       0.135000
     45 H           34.6030   -43.9400     3.3870 hn         1 0F7       0.333500
     46 HA          33.9650   -46.7670     3.1440 h1         1 0F7       0.074700
     47 HB          36.4440   -45.1330     2.5140 hc         1 0F7       0.058700
     48 HG12        34.4270   -46.4560     0.6560 hc         1 0F7       0.041200
     49 HG13        34.2860   -44.7920     1.1680 hc         1 0F7       0.041200
     50 HG21        37.1940   -47.1740     1.2370 hc         1 0F7       0.049367
     51 HG22        37.1950   -47.4360     2.9650 hc         1 0F7       0.049367
     52 HG23        35.8880   -48.0930     1.9780 hc         1 0F7       0.049367
     53 HD11        35.3610   -44.8700    -1.0320 hc         1 0F7       0.031033
     54 HD12        36.5140   -44.2630     0.1510 hc         1 0F7       0.031033
     55 HD13        36.6380   -45.9180    -0.4410 hc         1 0F7       0.031033
     56 H1          34.5640   -48.3650     4.4110 hn         1 0F7       0.331500
     57 HA1         36.6440   -47.9580     6.4560 h1         1 0F7       0.086700
     58 HB2         34.1050   -49.6350     6.7000 hc         1 0F7       0.058700
     59 HB3         35.4220   -49.6610     7.8570 hc         1 0F7       0.058700
     60 HG          33.7730   -47.1840     7.2050 hc         1 0F7       0.063700
     61 HD14        33.5730   -49.0930     9.5790 hc         1 0F7       0.030367
     62 HD15        32.6630   -47.5970     9.3830 hc         1 0F7       0.030367
     63 HD16        32.3900   -48.9430     8.2790 hc         1 0F7       0.030367
     64 HD21        35.7830   -47.7260     9.4450 hc         1 0F7       0.030367
     65 HD22        36.0330   -46.6130     8.0980 hc         1 0F7       0.030367
     66 HD23        34.7940   -46.2760     9.2950 hc         1 0F7       0.030367
     67 H11         37.9760   -49.7280     6.7910 hn         1 0F7       0.316500
     68 HA2         37.6200   -52.0820     5.0460 h1         1 0F7       0.129700
     69 HB21        40.2490   -50.6310     5.6370 hc         1 0F7       0.073700
     70 HB1         40.1560   -52.2450     4.9710 hc         1 0F7       0.073700
     71 HG1         40.5600   -50.7020     3.1750 h2         1 0F7       0.033700
@<TRIPOS>BOND
     1     1     2 2   
     2     1     3 1   
     3     1    11 1   
     4     3     4 1   
     5     4     5 1   
     6     4    38 1   
     7     4    39 1   
     8     5     6 ar  
     9     5    10 ar  
    10     6     7 ar  
    11     6    40 1   
    12     7     8 ar  
    13     7    41 1   
    14     8     9 ar  
    15     8    42 1   
    16     9    10 ar  
    17     9    43 1   
    18    10    44 1   
    19    11    12 1   
    20    11    45 1   
    21    12    13 1   
    22    12    15 1   
    23    12    46 1   
    24    13    14 2   
    25    13    19 1   
    26    15    16 1   
    27    15    17 1   
    28    15    47 1   
    29    16    18 1   
    30    16    48 1   
    31    16    49 1   
    32    17    50 1   
    33    17    51 1   
    34    17    52 1   
    35    18    53 1   
    36    18    54 1   
    37    18    55 1   
    38    19    20 1   
    39    19    56 1   
    40    20    21 1   
    41    20    23 1   
    42    20    57 1   
    43    21    22 2   
    44    21    27 1   
    45    23    24 1   
    46    23    58 1   
    47    23    59 1   
    48    24    25 1   
    49    24    26 1   
    50    24    60 1   
    51    25    61 1   
    52    25    62 1   
    53    25    63 1   
    54    26    64 1   
    55    26    65 1   
    56    26    66 1   
    57    27    28 1   
    58    27    67 1   
    59    28    29 1   
    60    28    31 1   
    61    28    68 1   
    62    29    30 2   
    63    29    35 1   
    64    31    32 1   
    65    31    69 1   
    66    31    70 1   
    67    32    33 1   
    68    32    34 1   
    69    32    71 1   
    70    35    36 1   
    71    35    37 1   
@<TRIPOS>SUBSTRUCTURE
     1 0F7         1 TEMP              0 ****  ****    0 ROOT
