@<TRIPOS>MOLECULE
0F9
   20    21     1     0     0
SMALL
abcg2


@<TRIPOS>ATOM
      1 CAC         -1.9760     1.7340     0.0680 cc         1 0F9      -0.213000
      2 CAD         -3.3490     1.6790     0.0860 cd         1 0F9      -0.162000
      3 NAE         -3.6840     0.3810     0.1040 na         1 0F9       0.014800
      4 NAF         -2.6270    -0.4140     0.0990 nd         1 0F9      -0.585800
      5 CAB         -1.5660     0.3850     0.0780 cc         1 0F9       0.334500
      6 CAA         -0.2170    -0.1790     0.0660 ca         1 0F9      -0.220500
      7 CAK          0.8890     0.6700     0.0380 ca         1 0F9      -0.044000
      8 CAJ          2.1710     0.1590     0.0270 ca         1 0F9       0.068000
      9 CL1          3.5260     1.2440    -0.0060 cl         1 0F9      -0.208000
     10 CAI          2.3870    -1.2110     0.0420 ca         1 0F9      -0.053000
     11 CAH          1.3000    -2.0640     0.0700 ca         1 0F9      -0.158000
     12 CAG         -0.0040    -1.5700     0.0830 ca         1 0F9       0.189100
     13 OAM         -1.0040    -2.4610     0.1100 oh         1 0F9      -0.547100
     14 H1          -1.3660     2.6220     0.0540 ha         1 0F9       0.151000
     15 H2          -4.0930     2.4570     0.0860 h4         1 0F9       0.158000
     16 H3          -4.6110    -0.0130     0.1180 hn         1 0F9       0.377000
     17 H4           0.7400     1.7420     0.0260 ha         1 0F9       0.126000
     18 H5           3.3910    -1.6130     0.0320 ha         1 0F9       0.130000
     19 H6           1.4560    -3.1350     0.0810 ha         1 0F9       0.133000
     20 H7          -1.8650    -1.9890     0.1160 ho         1 0F9       0.511000
@<TRIPOS>BOND
     1     1     2 2   
     2     1     5 1   
     3     1    14 1   
     4     2     3 1   
     5     2    15 1   
     6     3     4 1   
     7     3    16 1   
     8     4     5 2   
     9     5     6 1   
    10     6     7 ar  
    11     6    12 ar  
    12     7     8 ar  
    13     7    17 1   
    14     8     9 1   
    15     8    10 ar  
    16    10    11 ar  
    17    10    18 1   
    18    11    12 ar  
    19    11    19 1   
    20    12    13 1   
    21    13    20 1   
@<TRIPOS>SUBSTRUCTURE
     1 0F9         1 TEMP              0 ****  ****    0 ROOT
