@<TRIPOS>MOLECULE
0F9
   20    21     1     0     0
SMALL
No Charge or Current Charge


@<TRIPOS>ATOM
      1 CAC         -1.9870     1.6690     0.0670 cc         1 0F9      -0.213000
      2 CAD         -3.3450     1.7510     0.0840 cd         1 0F9      -0.162000
      3 NAE         -3.7710     0.4210     0.1070 na         1 0F9       0.014800
      4 NAF         -2.7010    -0.4760     0.1040 nd         1 0F9      -0.585800
      5 CAB         -1.6320     0.3060     0.0790 cc         1 0F9       0.334500
      6 CAA         -0.2500    -0.2240     0.0670 ca         1 0F9      -0.220500
      7 CAK          0.8550     0.6650     0.0400 ca         1 0F9      -0.044000
      8 CAJ          2.1750     0.1830     0.0280 ca         1 0F9       0.068000
      9 Cl1          3.5210     1.3150    -0.0050 cl         1 0F9      -0.208000
     10 CAI          2.4250    -1.1960     0.0420 ca         1 0F9      -0.053000
     11 CAH          1.3470    -2.0930     0.0690 ca         1 0F9      -0.158000
     12 CAG          0.0270    -1.6170     0.0810 ca         1 0F9       0.189100
     13 OAM         -0.9820    -2.5250     0.1070 oh         1 0F9      -0.547100
     14 H1          -1.3030     2.5090     0.0460 ha         1 0F9       0.151000
     15 H2          -4.0200     2.6020     0.0830 h4         1 0F9       0.158000
     16 H3          -4.7410     0.1010     0.1250 hn         1 0F9       0.377000
     17 H4           0.7110     1.7410     0.0280 ha         1 0F9       0.126000
     18 H5           3.4480    -1.5660     0.0330 ha         1 0F9       0.130000
     19 H6           1.5360    -3.1630     0.0800 ha         1 0F9       0.133000
     20 H7          -1.8130    -1.9800     0.1110 ho         1 0F9       0.511000
@<TRIPOS>BOND
     1     1     2 2   
     2     1     5 1   
     3     1    14 1   
     4     2     3 1   
     5     2    15 1   
     6     3     4 1   
     7     3    16 1   
     8     4     5 2   
     9     5     6 1   
    10     6     7 ar  
    11     6    12 ar  
    12     7     8 ar  
    13     7    17 1   
    14     8     9 1   
    15     8    10 ar  
    16    10    11 ar  
    17    10    18 1   
    18    11    12 ar  
    19    11    19 1   
    20    12    13 1   
    21    13    20 1   
@<TRIPOS>SUBSTRUCTURE
     1 0F9         1 TEMP              0 ****  ****    0 ROOT
