@<TRIPOS>MOLECULE
0FA
   26    25     1     0     0
SMALL
abcg2


@<TRIPOS>ATOM
      1 C           53.7350    17.0750    -4.0920 c          1 0FA       0.640100
      2 N           51.6430    18.2330    -4.5840 n7         1 0FA      -0.894500
      3 O           54.9590    17.1230    -4.0370 o          1 0FA      -0.690100
      4 P           51.8230    18.9050    -6.2240 p5         1 0FA       1.199800
      5 N1          53.0480    15.9390    -4.3100 nt         1 0FA      -0.585000
      6 O1          52.0540    20.4100    -6.0470 o          1 0FA      -0.921167
      7 O2          53.0440    18.1500    -6.7560 o          1 0FA      -0.921167
      8 O3          50.4930    18.5550    -6.8880 o          1 0FA      -0.921167
      9 CA          52.8520    18.2770    -3.7860 c3         1 0FA       0.154500
     10 CB          52.4810    18.2790    -2.2950 c3         1 0FA      -0.080400
     11 CG          53.6170    18.2860    -1.2730 c3         1 0FA      -0.059700
     12 CD1         54.5290    19.4980    -1.4320 c3         1 0FA      -0.080600
     13 CD2         53.0280    18.2440     0.1350 c3         1 0FA      -0.080600
     14 HN          50.8960    18.7060    -4.0890 hn         1 0FA       0.374000
     15 HN1         53.5300    15.1190    -4.6400 hn         1 0FA       0.297000
     16 HN1A        52.0800    16.0580    -4.5690 hn         1 0FA       0.297000
     17 HA          53.4640    19.1670    -3.9920 h1         1 0FA       0.058700
     18 HB          51.8600    19.1660    -2.1210 hc         1 0FA       0.025200
     19 HBA         51.8320    17.4160    -2.1070 hc         1 0FA       0.025200
     20 HG          54.2230    17.3840    -1.4050 hc         1 0FA       0.050700
     21 HD1         55.2920    19.5190    -0.6510 hc         1 0FA       0.018700
     22 HD1A        55.0440    19.4970    -2.3920 hc         1 0FA       0.018700
     23 HD1B        53.9580    20.4270    -1.3590 hc         1 0FA       0.018700
     24 HD2         53.8130    18.1990     0.8920 hc         1 0FA       0.018700
     25 HD2A        52.4260    19.1340     0.3340 hc         1 0FA       0.018700
     26 HD2B        52.3850    17.3720     0.2720 hc         1 0FA       0.018700
@<TRIPOS>BOND
     1     1     3 2   
     2     1     5 1   
     3     1     9 1   
     4     2     4 1   
     5     2     9 1   
     6     2    14 1   
     7     4     6 1   
     8     4     7 1   
     9     4     8 1   
    10     5    15 1   
    11     5    16 1   
    12     9    10 1   
    13     9    17 1   
    14    10    11 1   
    15    10    18 1   
    16    10    19 1   
    17    11    12 1   
    18    11    13 1   
    19    11    20 1   
    20    12    21 1   
    21    12    22 1   
    22    12    23 1   
    23    13    24 1   
    24    13    25 1   
    25    13    26 1   
@<TRIPOS>SUBSTRUCTURE
     1 0FA         1 TEMP              0 ****  ****    0 ROOT
