@<TRIPOS>MOLECULE
0FA
   26    25     1     0     0
SMALL
No Charge or Current Charge


@<TRIPOS>ATOM
      1 C           53.8190    17.1840    -4.1970 c          1 0FA       0.640100
      2 N           51.6380    18.4860    -4.6800 n7         1 0FA      -0.894500
      3 O           54.9950    17.3140    -4.5190 o          1 0FA      -0.690100
      4 P           51.7080    18.8030    -6.2750 p5         1 0FA       1.199800
      5 N1          53.2930    15.9380    -4.0940 nt         1 0FA      -0.585000
      6 O1          52.3710    20.1210    -6.3930 o          1 0FA      -0.921167
      7 O2          52.4860    17.7280    -6.9350 o          1 0FA      -0.921167
      8 O3          50.3020    18.8670    -6.7340 o          1 0FA      -0.921167
      9 CA          52.8640    18.3850    -3.8290 c3         1 0FA       0.154500
     10 CB          52.4110    18.3280    -2.3390 c3         1 0FA      -0.080400
     11 CG          53.5550    18.2660    -1.2860 c3         1 0FA      -0.059700
     12 CD1         54.4950    19.4940    -1.3480 c3         1 0FA      -0.080600
     13 CD2         52.9820    18.0890     0.1390 c3         1 0FA      -0.080600
     14 HN          51.1120    19.2950    -4.3700 hn         1 0FA       0.374000
     15 HN1         53.8600    15.1380    -4.3270 hn         1 0FA       0.297000
     16 HN1A        52.3160    15.8350    -3.8630 hn         1 0FA       0.297000
     17 HA          53.4620    19.2960    -3.9610 h1         1 0FA       0.058700
     18 HB          51.7890    19.2070    -2.1250 hc         1 0FA       0.025200
     19 HBA         51.7630    17.4530    -2.2010 hc         1 0FA       0.025200
     20 HG          54.1630    17.3760    -1.4920 hc         1 0FA       0.050700
     21 HD1         55.2620    19.4320    -0.5660 hc         1 0FA       0.018700
     22 HD1A        55.0130    19.5490    -2.3120 hc         1 0FA       0.018700
     23 HD1B        53.9330    20.4240    -1.2020 hc         1 0FA       0.018700
     24 HD2         53.7910    17.9910     0.8730 hc         1 0FA       0.018700
     25 HD2A        52.3640    18.9500     0.4220 hc         1 0FA       0.018700
     26 HD2B        52.3620    17.1870     0.1990 hc         1 0FA       0.018700
@<TRIPOS>BOND
     1     1     3 2   
     2     1     5 1   
     3     1     9 1   
     4     2     4 1   
     5     2     9 1   
     6     2    14 1   
     7     4     6 1   
     8     4     7 1   
     9     4     8 1   
    10     5    15 1   
    11     5    16 1   
    12     9    10 1   
    13     9    17 1   
    14    10    11 1   
    15    10    18 1   
    16    10    19 1   
    17    11    12 1   
    18    11    13 1   
    19    11    20 1   
    20    12    21 1   
    21    12    22 1   
    22    12    23 1   
    23    13    24 1   
    24    13    25 1   
    25    13    26 1   
@<TRIPOS>SUBSTRUCTURE
     1 0FA         1 TEMP              0 ****  ****    0 ROOT
