@<TRIPOS>MOLECULE
0FG
   56    57     1     0     0
SMALL
bcc


@<TRIPOS>ATOM
      1 N            4.0080     2.1500    -2.2110 n8         1 0FG      -0.871800
      2 CA           3.5280     1.5790    -0.9670 c3         1 0FG       0.089500
      3 CB           4.3820     0.4430    -0.3780 c3         1 0FG      -0.119400
      4 CG           5.8240     0.8190    -0.0360 c3         1 0FG      -0.058700
      5 CD1          5.8950     1.9400     0.9950 c3         1 0FG      -0.089600
      6 CD2          6.5610    -0.4180     0.4720 c3         1 0FG      -0.089600
      7 C            2.1350     1.0100    -1.1860 c          1 0FG       0.683100
      8 O            1.8410     0.4160    -2.2120 o          1 0FG      -0.603100
      9 N1           1.2930     1.1620    -0.1460 ns         1 0FG      -0.557900
     10 CA1          0.0310     0.4820    -0.0380 c3         1 0FG       0.033700
     11 C1          -1.1100     1.4870     0.0720 c          1 0FG       0.658100
     12 O1          -0.9900     2.5060     0.7340 o          1 0FG      -0.600100
     13 CB1         -0.0020    -0.4420     1.1940 c3         1 0FG      -0.047100
     14 CG1          1.1940    -1.3510     1.2460 ca         1 0FG      -0.084300
     15 CD11         2.1360    -1.2290     2.2630 ca         1 0FG      -0.122000
     16 CD21         1.3990    -2.3150     0.2610 ca         1 0FG      -0.122000
     17 CE1          3.2580    -2.0470     2.2980 ca         1 0FG      -0.126500
     18 CE2          2.5200    -3.1310     0.2890 ca         1 0FG      -0.126500
     19 CZ           3.4560    -2.9980     1.3080 ca         1 0FG      -0.127000
     20 C11         -4.6610     0.9450    -0.3460 ca         1 0FG      -0.129300
     21 C2          -4.7170     0.0250     0.7000 ca         1 0FG      -0.090000
     22 C3          -5.8070    -0.8160     0.8550 ca         1 0FG      -0.170500
     23 C4          -6.8460    -0.7260    -0.0550 ca         1 0FG       0.141900
     24 C5          -6.8260     0.1700    -1.1030 ca         1 0FG      -0.170500
     25 C6          -5.7220     1.0020    -1.2410 ca         1 0FG      -0.090000
     26 C7          -3.4780     1.8650    -0.4950 c3         1 0FG       0.148300
     27 N2          -2.2390     1.1210    -0.5520 ns         1 0FG      -0.570900
     28 F           -7.9060    -1.5390     0.0890 f          1 0FG      -0.141900
     29 H            4.9180     2.5670    -2.0610 hn         1 0FG       0.350300
     30 H2           4.1440     1.4160    -2.8960 hn         1 0FG       0.350300
     31 HA           3.4660     2.3920    -0.2370 h1         1 0FG       0.067700
     32 HB2          3.8950     0.0610     0.5260 hc         1 0FG       0.056700
     33 HB3          4.3850    -0.3900    -1.0900 hc         1 0FG       0.056700
     34 HG           6.3270     1.1540    -0.9510 hc         1 0FG       0.040700
     35 HD11         6.9300     2.1740     1.2500 hc         1 0FG       0.034200
     36 HD12         5.4360     2.8650     0.6430 hc         1 0FG       0.034200
     37 HD13         5.3860     1.6480     1.9180 hc         1 0FG       0.034200
     38 HD21         6.5370    -1.2270    -0.2600 hc         1 0FG       0.034200
     39 HD22         7.6060    -0.1970     0.6930 hc         1 0FG       0.034200
     40 HD23         6.0960    -0.7920     1.3880 hc         1 0FG       0.034200
     41 H1           1.6080     1.6870     0.6550 hn         1 0FG       0.327500
     42 HA1         -0.0850    -0.1260    -0.9360 h1         1 0FG       0.089700
     43 HB21        -0.0410     0.1660     2.1020 hc         1 0FG       0.060700
     44 HB31        -0.9280    -1.0230     1.1620 hc         1 0FG       0.060700
     45 HD1          1.9940    -0.4800     3.0340 ha         1 0FG       0.131000
     46 HD2          0.6750    -2.4310    -0.5380 ha         1 0FG       0.131000
     47 HE1          3.9820    -1.9350     3.0950 ha         1 0FG       0.132500
     48 HE2          2.6630    -3.8730    -0.4860 ha         1 0FG       0.132500
     49 HZ           4.3310    -3.6340     1.3280 ha         1 0FG       0.132000
     50 H21         -3.9010    -0.0410     1.4090 ha         1 0FG       0.138000
     51 H3          -5.8500    -1.5280     1.6680 ha         1 0FG       0.152000
     52 H5          -7.6510     0.2190    -1.8010 ha         1 0FG       0.152000
     53 H6          -5.6950     1.7040    -2.0650 ha         1 0FG       0.138000
     54 H11         -3.5960     2.4800    -1.3910 h1         1 0FG       0.065700
     55 H2A         -3.4210     2.5480     0.3530 h1         1 0FG       0.065700
     56 HN2         -2.2170     0.3080    -1.1480 hn         1 0FG       0.319500
@<TRIPOS>BOND
     1     1     2 1   
     2     1    29 1   
     3     1    30 1   
     4     2     3 1   
     5     2     7 1   
     6     2    31 1   
     7     3     4 1   
     8     3    32 1   
     9     3    33 1   
    10     4     5 1   
    11     4     6 1   
    12     4    34 1   
    13     5    35 1   
    14     5    36 1   
    15     5    37 1   
    16     6    38 1   
    17     6    39 1   
    18     6    40 1   
    19     7     8 2   
    20     7     9 1   
    21     9    10 1   
    22     9    41 1   
    23    10    11 1   
    24    10    13 1   
    25    10    42 1   
    26    11    12 2   
    27    11    27 1   
    28    13    14 1   
    29    13    43 1   
    30    13    44 1   
    31    14    15 ar  
    32    14    16 ar  
    33    15    17 ar  
    34    15    45 1   
    35    16    18 ar  
    36    16    46 1   
    37    17    19 ar  
    38    17    47 1   
    39    18    19 ar  
    40    18    48 1   
    41    19    49 1   
    42    20    21 ar  
    43    20    25 ar  
    44    20    26 1   
    45    21    22 ar  
    46    21    50 1   
    47    22    23 ar  
    48    22    51 1   
    49    23    24 ar  
    50    23    28 1   
    51    24    25 ar  
    52    24    52 1   
    53    25    53 1   
    54    26    27 1   
    55    26    54 1   
    56    26    55 1   
    57    27    56 1   
@<TRIPOS>SUBSTRUCTURE
     1 0FG         1 TEMP              0 ****  ****    0 ROOT
