@<TRIPOS>MOLECULE
0FI
   16    16     1     0     0
SMALL
bcc


@<TRIPOS>ATOM
      1 N2          -1.0080    -1.1760     0.1310 ns         1 0FI      -0.361100
      2 S2          -2.8780     0.7150     0.6450 s          1 0FI      -0.516400
      3 C4          -2.2610    -0.7800     0.3380 cs         1 0FI       0.425200
      4 C5           0.2160    -0.4940     0.0940 ca         1 0FI       0.033600
      5 C6           0.3810     0.8600     0.3820 ca         1 0FI      -0.150000
      6 C7           1.6500     1.4220     0.3150 ca         1 0FI      -0.106500
      7 C8           2.7560     0.6610    -0.0320 ca         1 0FI      -0.137000
      8 C9           2.5880    -0.6890    -0.3160 ca         1 0FI      -0.106500
      9 C10          1.3310    -1.2620    -0.2530 ca         1 0FI      -0.150000
     10 H2          -2.9370    -1.6290     0.2770 h5         1 0FI       0.040200
     11 H3          -0.4640     1.4720     0.6530 ha         1 0FI       0.153500
     12 H4           1.7670     2.4740     0.5400 ha         1 0FI       0.137000
     13 H5           3.7390     1.1120    -0.0800 ha         1 0FI       0.137000
     14 H6           3.4380    -1.3000    -0.5870 ha         1 0FI       0.137000
     15 H7           1.2120    -2.3170    -0.4740 ha         1 0FI       0.153500
     16 H8          -0.9190    -2.1670    -0.0450 hn         1 0FI       0.312500
@<TRIPOS>BOND
     1     1     3 1   
     2     1     4 1   
     3     1    16 1   
     4     2     3 2   
     5     3    10 1   
     6     4     5 ar  
     7     4     9 ar  
     8     5     6 ar  
     9     5    11 1   
    10     6     7 ar  
    11     6    12 1   
    12     7     8 ar  
    13     7    13 1   
    14     8     9 ar  
    15     8    14 1   
    16     9    15 1   
@<TRIPOS>SUBSTRUCTURE
     1 0FI         1 TEMP              0 ****  ****    0 ROOT
