@<TRIPOS>MOLECULE
0FI
   16    16     1     0     0
SMALL
No Charge or Current Charge


@<TRIPOS>ATOM
      1 N2          -1.0200    -1.2040     0.2560 ns         1 0FI      -0.294100
      2 S2          -2.8680     0.7790    -0.0600 s          1 0FI      -0.516400
      3 C4          -2.3300    -0.7780     0.2660 cs         1 0FI       0.358200
      4 C5           0.2270    -0.5370     0.1470 ca         1 0FI       0.033600
      5 C6           0.4040     0.8110     0.5250 ca         1 0FI      -0.132000
      6 C7           1.6660     1.4210     0.4120 ca         1 0FI      -0.088500
      7 C8           2.7620     0.6870    -0.0710 ca         1 0FI      -0.119000
      8 C9           2.5980    -0.6590    -0.4330 ca         1 0FI      -0.088500
      9 C10          1.3360    -1.2680    -0.3190 ca         1 0FI      -0.132000
     10 H2          -3.0200    -1.6090     0.4190 h5         1 0FI       0.040200
     11 H3          -0.4200     1.3900     0.9270 ha         1 0FI       0.135500
     12 H4           1.7950     2.4600     0.7060 ha         1 0FI       0.119000
     13 H5           3.7390     1.1600    -0.1570 ha         1 0FI       0.119000
     14 H6           3.4470    -1.2310    -0.8020 ha         1 0FI       0.119000
     15 H7           1.2210    -2.3120    -0.6030 ha         1 0FI       0.135500
     16 H8          -0.9250    -2.2070     0.3740 hn         1 0FI       0.312500
@<TRIPOS>BOND
     1     1     3 1   
     2     1     4 1   
     3     1    16 1   
     4     2     3 2   
     5     3    10 1   
     6     4     5 ar  
     7     4     9 ar  
     8     5     6 ar  
     9     5    11 1   
    10     6     7 ar  
    11     6    12 1   
    12     7     8 ar  
    13     7    13 1   
    14     8     9 ar  
    15     8    14 1   
    16     9    15 1   
@<TRIPOS>SUBSTRUCTURE
     1 0FI         1 TEMP              0 ****  ****    0 ROOT
