@<TRIPOS>MOLECULE
0FK
   22    23     1     0     0
SMALL
abcg2


@<TRIPOS>ATOM
      1 CAG         -1.2680     1.6330    -0.0030 ca         1 0FK      -0.109000
      2 CAI          0.0130     2.1090    -0.0070 ca         1 0FK      -0.075000
      3 CAH          1.0990     1.2070     0.0180 ca         1 0FK      -0.027000
      4 CAN          2.4530     1.6030     0.0150 ca         1 0FK      -0.141000
      5 CAL          3.4310     0.6430     0.0400 ca         1 0FK      -0.053000
      6 CAM          3.1230    -0.7310     0.0690 ca         1 0FK      -0.165000
      7 CAE          1.8140    -1.1430     0.0740 ca         1 0FK       0.173100
      8 OAK          1.4970    -2.4420     0.1010 oh         1 0FK      -0.522100
      9 CAB          0.7750    -0.1690     0.0470 ca         1 0FK       0.190000
     10 NAA         -0.4910    -0.6220     0.0500 nb         1 0FK      -0.693000
     11 CAC         -1.4760     0.2390     0.0260 ca         1 0FK       0.308500
     12 CAD         -2.8840    -0.2920     0.0280 c          1 0FK       0.510600
     13 OAF         -3.8350     0.4760     0.0010 o          1 0FK      -0.602100
     14 NAJ         -2.9880    -1.6220     0.0620 nt         1 0FK      -0.587000
     15 H1          -2.1120     2.3070    -0.0220 ha         1 0FK       0.151000
     16 H2           0.2030     3.1750    -0.0290 ha         1 0FK       0.127000
     17 H3           2.7020     2.6550    -0.0070 ha         1 0FK       0.122000
     18 H4           4.4720     0.9370     0.0370 ha         1 0FK       0.118000
     19 H5           3.9190    -1.4640     0.0880 ha         1 0FK       0.134000
     20 H6           0.5310    -2.5190     0.1000 ho         1 0FK       0.489000
     21 H7          -2.1690    -2.2050     0.0720 hn         1 0FK       0.325000
     22 H8          -3.8920    -2.0640     0.0530 hn         1 0FK       0.325000
@<TRIPOS>BOND
     1     1     2 ar  
     2     1    11 ar  
     3     1    15 1   
     4     2     3 ar  
     5     2    16 1   
     6     3     4 ar  
     7     3     9 ar  
     8     4     5 ar  
     9     4    17 1   
    10     5     6 ar  
    11     5    18 1   
    12     6     7 ar  
    13     6    19 1   
    14     7     8 1   
    15     7     9 ar  
    16     8    20 1   
    17     9    10 ar  
    18    10    11 ar  
    19    11    12 1   
    20    12    13 2   
    21    12    14 1   
    22    14    21 1   
    23    14    22 1   
@<TRIPOS>SUBSTRUCTURE
     1 0FK         1 TEMP              0 ****  ****    0 ROOT
