@<TRIPOS>MOLECULE
0FK
   22    23     1     0     0
SMALL
No Charge or Current Charge


@<TRIPOS>ATOM
      1 CAG         -1.2620     1.6190    -0.0050 ca         1 0FK      -0.109000
      2 CAI          0.0590     2.0950    -0.0080 ca         1 0FK      -0.075000
      3 CAH          1.1090     1.1640     0.0180 ca         1 0FK      -0.027000
      4 CAN          2.4470     1.6070     0.0160 ca         1 0FK      -0.141000
      5 CAL          3.4990     0.6770     0.0420 ca         1 0FK      -0.053000
      6 CAM          3.2160    -0.6980     0.0700 ca         1 0FK      -0.165000
      7 CAE          1.8840    -1.1410     0.0730 ca         1 0FK       0.173100
      8 OAK          1.6190    -2.4800     0.1000 oh         1 0FK      -0.522100
      9 CAB          0.8060    -0.2210     0.0470 ca         1 0FK       0.190000
     10 NAA         -0.4790    -0.6750     0.0500 nb         1 0FK      -0.693000
     11 CAC         -1.5090     0.2300     0.0240 ca         1 0FK       0.308500
     12 CAD         -2.9600    -0.2800     0.0270 c          1 0FK       0.510600
     13 OAF         -3.9390     0.4560     0.0060 o          1 0FK      -0.602100
     14 NAJ         -3.1580    -1.6240     0.0560 nt         1 0FK      -0.587000
     15 H1          -2.0920     2.3210    -0.0250 ha         1 0FK       0.151000
     16 H2           0.2580     3.1640    -0.0300 ha         1 0FK       0.127000
     17 H3           2.6720     2.6710    -0.0060 ha         1 0FK       0.122000
     18 H4           4.5320     1.0220     0.0400 ha         1 0FK       0.118000
     19 H5           4.0280    -1.4200     0.0900 ha         1 0FK       0.134000
     20 H6           0.6370    -2.5440     0.0960 ho         1 0FK       0.489000
     21 H7          -2.3560    -2.2380     0.0730 hn         1 0FK       0.325000
     22 H8          -4.0960    -1.9940     0.0590 hn         1 0FK       0.325000
@<TRIPOS>BOND
     1     1     2 ar  
     2     1    11 ar  
     3     1    15 1   
     4     2     3 ar  
     5     2    16 1   
     6     3     4 ar  
     7     3     9 ar  
     8     4     5 ar  
     9     4    17 1   
    10     5     6 ar  
    11     5    18 1   
    12     6     7 ar  
    13     6    19 1   
    14     7     8 1   
    15     7     9 ar  
    16     8    20 1   
    17     9    10 ar  
    18    10    11 ar  
    19    11    12 1   
    20    12    13 2   
    21    12    14 1   
    22    14    21 1   
    23    14    22 1   
@<TRIPOS>SUBSTRUCTURE
     1 0FK         1 TEMP              0 ****  ****    0 ROOT
