@<TRIPOS>MOLECULE
0FL
   16    15     1     0     0
SMALL
bcc


@<TRIPOS>ATOM
      1 C1          17.4010   -17.0740    25.0440 c          1 0FL       0.652900
      2 O1          17.7920   -18.1300    24.5690 o          1 0FL      -0.657100
      3 N           16.9200   -16.0360    24.3600 ns         1 0FL      -0.543900
      4 CA          16.8460   -15.9480    22.9190 c3         1 0FL      -0.053300
      5 C           16.7130   -14.4570    22.5100 c          1 0FL       0.925600
      6 O           16.6650   -13.6170    23.4270 o          1 0FL      -0.833300
      7 CB          15.6810   -16.7850    22.3690 c3         1 0FL       0.162800
      8 OXT         16.6530   -14.2370    21.2850 o          1 0FL      -0.833300
      9 N2          15.8440   -17.0500    20.9490 n8         1 0FL      -0.893800
     10 H1          17.4110   -16.8800    26.1290 h5         1 0FL      -0.032800
     11 H2          16.7130   -15.1770    24.8500 hn         1 0FL       0.337500
     12 HA          17.7700   -16.3460    22.4840 h1         1 0FL       0.067700
     13 HB1         15.6720   -17.7430    22.8920 h1         1 0FL       0.010700
     14 HB2         14.7370   -16.2830    22.6290 h1         1 0FL       0.010700
     15 HA1         15.0290   -17.5400    20.6060 hn         1 0FL       0.339300
     16 HB3         15.8770   -16.1610    20.4650 hn         1 0FL       0.339300
@<TRIPOS>BOND
     1     1     2 2   
     2     1     3 1   
     3     1    10 1   
     4     3     4 1   
     5     3    11 1   
     6     4     5 1   
     7     4     7 1   
     8     4    12 1   
     9     5     6 1   
    10     5     8 1   
    11     7     9 1   
    12     7    13 1   
    13     7    14 1   
    14     9    15 1   
    15     9    16 1   
@<TRIPOS>SUBSTRUCTURE
     1 0FL         1 TEMP              0 ****  ****    0 ROOT
