@<TRIPOS>MOLECULE
0FN
   18    19     1     0     0
SMALL
bcc


@<TRIPOS>ATOM
      1 OAH         -1.0130    -2.3290     0.1350 o          1 0FN      -0.464100
      2 CAC         -0.6370    -1.1930     0.2140 c          1 0FN       0.600200
      3 CAD          0.7320    -0.6780     0.0540 ca         1 0FN      -0.154600
      4 CAK          1.9070    -1.4000    -0.0910 ca         1 0FN      -0.068000
      5 CAL          3.0850    -0.6850    -0.2470 ca         1 0FN      -0.112500
      6 CAM          3.0850     0.7120    -0.2630 ca         1 0FN      -0.112500
      7 CAJ          1.9070     1.4310    -0.1240 ca         1 0FN      -0.068000
      8 CAE          0.7320     0.7130     0.0370 ca         1 0FN      -0.154600
      9 CAB         -0.6360     1.2320     0.1850 c          1 0FN       0.600200
     10 OAI         -1.0120     2.3660     0.0800 o          1 0FN      -0.464100
     11 CAA         -1.5280     0.0230     0.5070 c5         1 0FN      -0.227600
     12 CAF         -2.7880     0.0150    -0.1990 c1         1 0FN       0.230700
     13 NAG         -3.7830     0.0080    -0.7740 n1         1 0FN      -0.330800
     14 H1           1.9080    -2.4810    -0.0810 ha         1 0FN       0.157000
     15 H2           4.0210    -1.2150    -0.3620 ha         1 0FN       0.142000
     16 H3           4.0210     1.2400    -0.3900 ha         1 0FN       0.142000
     17 H4           1.9090     2.5120    -0.1400 ha         1 0FN       0.157000
     18 H5          -1.7270     0.0370     1.5880 hc         1 0FN       0.124700
@<TRIPOS>BOND
     1     1     2 2   
     2     2     3 1   
     3     2    11 1   
     4     3     4 ar  
     5     3     8 ar  
     6     4     5 ar  
     7     4    14 1   
     8     5     6 ar  
     9     5    15 1   
    10     6     7 ar  
    11     6    16 1   
    12     7     8 ar  
    13     7    17 1   
    14     8     9 1   
    15     9    10 2   
    16     9    11 1   
    17    11    12 1   
    18    11    18 1   
    19    12    13 3   
@<TRIPOS>SUBSTRUCTURE
     1 0FN         1 TEMP              0 ****  ****    0 ROOT
