@<TRIPOS>MOLECULE
0FN
   18    19     1     0     0
SMALL
No Charge or Current Charge


@<TRIPOS>ATOM
      1 OAH         -0.8760    -2.3260     0.9980 o          1 0FN      -0.464100
      2 CAC         -0.6500    -1.1940     0.5940 c          1 0FN       0.600200
      3 CAD          0.6790    -0.6710     0.1750 ca         1 0FN      -0.154600
      4 CAK          1.8370    -1.4050    -0.1310 ca         1 0FN      -0.050000
      5 CAL          3.0070    -0.6970    -0.4740 ca         1 0FN      -0.094500
      6 CAM          3.0070     0.7170    -0.4920 ca         1 0FN      -0.094500
      7 CAJ          1.8380     1.4340    -0.1680 ca         1 0FN      -0.050000
      8 CAE          0.6790     0.7090     0.1570 ca         1 0FN      -0.154600
      9 CAB         -0.6500     1.2430     0.5630 c          1 0FN       0.600200
     10 OAI         -0.8750     2.3860     0.9370 o          1 0FN      -0.464100
     11 CAA         -1.5870     0.0250     0.5660 c5         1 0FN      -0.227600
     12 CAF         -2.3880     0.0090    -0.6550 c1         1 0FN       0.319900
     13 NAG         -3.0580    -0.0040    -1.6060 n1         1 0FN      -0.420000
     14 H1           1.8340    -2.4930    -0.1040 ha         1 0FN       0.139000
     15 H2           3.9160    -1.2410    -0.7190 ha         1 0FN       0.124000
     16 H3           3.9170     1.2550    -0.7510 ha         1 0FN       0.124000
     17 H4           1.8350     2.5230    -0.1690 ha         1 0FN       0.139000
     18 H5          -2.2810     0.0360     1.4080 hc         1 0FN       0.124700
@<TRIPOS>BOND
     1     1     2 2   
     2     2     3 1   
     3     2    11 1   
     4     3     4 ar  
     5     3     8 ar  
     6     4     5 ar  
     7     4    14 1   
     8     5     6 ar  
     9     5    15 1   
    10     6     7 ar  
    11     6    16 1   
    12     7     8 ar  
    13     7    17 1   
    14     8     9 1   
    15     9    10 2   
    16     9    11 1   
    17    11    12 1   
    18    11    18 1   
    19    12    13 3   
@<TRIPOS>SUBSTRUCTURE
     1 0FN         1 TEMP              0 ****  ****    0 ROOT
