@<TRIPOS>MOLECULE
0FO
   18    19     1     0     0
SMALL
No Charge or Current Charge


@<TRIPOS>ATOM
      1 CAD          3.3090     0.9950     0.0140 cc         1 0FO      -0.467200
      2 CAE          3.6810    -0.4220     0.0030 c          1 0FO       0.695300
      3 OAG          4.8470    -0.7840    -0.0060 o          1 0FO      -0.483000
      4 OAF          2.6480    -1.3210     0.0040 os         1 0FO      -0.337200
      5 CAA          1.3200    -0.9700     0.0140 ca         1 0FO       0.200100
      6 CAL          0.3470    -1.9820     0.0130 ca         1 0FO      -0.139000
      7 CAK         -1.0170    -1.6450     0.0240 ca         1 0FO      -0.029000
      8 CAJ         -1.4010    -0.2930     0.0350 ca         1 0FO      -0.063900
      9 Br1         -3.2570     0.1680     0.0490 br         1 0FO      -0.080100
     10 CAI         -0.4280     0.7220     0.0350 ca         1 0FO      -0.003000
     11 CAB          0.9440     0.3830     0.0250 ca         1 0FO      -0.169800
     12 CAC          2.0040     1.3860     0.0250 cd         1 0FO       0.257900
     13 OAH          1.6670     2.6870     0.0350 oh         1 0FO      -0.512100
     14 H1           4.1380     1.6900     0.0140 ha         1 0FO       0.215000
     15 H2           0.6520    -3.0250     0.0050 ha         1 0FO       0.146000
     16 H3          -1.7730    -2.4290     0.0230 ha         1 0FO       0.138000
     17 H4          -0.7430     1.7630     0.0440 ha         1 0FO       0.148000
     18 H5           2.5070     3.1910     0.0330 ho         1 0FO       0.486000
@<TRIPOS>BOND
     1     1     2 1   
     2     1    12 2   
     3     1    14 1   
     4     2     3 2   
     5     2     4 1   
     6     4     5 1   
     7     5     6 ar  
     8     5    11 ar  
     9     6     7 ar  
    10     6    15 1   
    11     7     8 ar  
    12     7    16 1   
    13     8     9 1   
    14     8    10 ar  
    15    10    11 ar  
    16    10    17 1   
    17    11    12 1   
    18    12    13 1   
    19    13    18 1   
@<TRIPOS>SUBSTRUCTURE
     1 0FO         1 TEMP              0 ****  ****    0 ROOT
