@<TRIPOS>MOLECULE
0FO
   18    19     1     0     0
SMALL
bcc


@<TRIPOS>ATOM
      1 CAD          3.3040     0.9650     0.0130 cc         1 0FO      -0.417200
      2 CAE          3.6500    -0.4270     0.0040 c          1 0FO       0.770800
      3 OAG          4.7660    -0.8850    -0.0070 o          1 0FO      -0.558500
      4 OAF          2.6190    -1.3220     0.0090 os         1 0FO      -0.337200
      5 CAA          1.3240    -0.9490     0.0170 ca         1 0FO       0.200100
      6 CAL          0.3670    -1.9550     0.0130 ca         1 0FO      -0.157000
      7 CAK         -0.9720    -1.6190     0.0220 ca         1 0FO      -0.047000
      8 CAJ         -1.3500    -0.2770     0.0340 ca         1 0FO      -0.063900
      9 BR1         -3.1820     0.1650     0.0480 br         1 0FO      -0.080100
     10 CAI         -0.4070     0.7290     0.0380 ca         1 0FO      -0.021000
     11 CAB          0.9490     0.3930     0.0280 ca         1 0FO      -0.169800
     12 CAC          2.0120     1.3740     0.0270 cd         1 0FO       0.257900
     13 OAH          1.6210     2.6360     0.0380 oh         1 0FO      -0.473100
     14 H1           4.1210     1.6750     0.0120 ha         1 0FO       0.165000
     15 H2           0.6700    -2.9930     0.0030 ha         1 0FO       0.164000
     16 H3          -1.7160    -2.4040     0.0180 ha         1 0FO       0.156000
     17 H4          -0.7050     1.7680     0.0480 ha         1 0FO       0.166000
     18 H5           2.3750     3.2410     0.0250 ho         1 0FO       0.447000
@<TRIPOS>BOND
     1     1     2 1   
     2     1    12 2   
     3     1    14 1   
     4     2     3 2   
     5     2     4 1   
     6     4     5 1   
     7     5     6 ar  
     8     5    11 ar  
     9     6     7 ar  
    10     6    15 1   
    11     7     8 ar  
    12     7    16 1   
    13     8     9 1   
    14     8    10 ar  
    15    10    11 ar  
    16    10    17 1   
    17    11    12 1   
    18    12    13 1   
    19    13    18 1   
@<TRIPOS>SUBSTRUCTURE
     1 0FO         1 TEMP              0 ****  ****    0 ROOT
