@<TRIPOS>MOLECULE
0FP
  114   114     1     0     0
SMALL
No Charge or Current Charge


@<TRIPOS>ATOM
      1 CA           8.9030    -1.5430    -0.4510 c3         1 0FP      -0.156400
      2 C            7.9070    -0.9590     0.5550 c          1 0FP       0.601100
      3 O            8.1460    -0.8870     1.7510 o          1 0FP      -0.607100
      4 CB          10.0530    -0.5520    -0.7460 c3         1 0FP      -0.065400
      5 CG          11.0730    -1.1000    -1.7680 c3         1 0FP      -0.077400
      6 CD          12.2260    -0.1150    -2.0640 c3         1 0FP      -0.078400
      7 CE          13.2390    -0.6700    -3.0860 c3         1 0FP       0.149800
      8 NZ          14.3290     0.2870    -3.3450 n8         1 0FP      -0.995200
      9 N            6.7080    -0.5530     0.0130 ns         1 0FP      -0.496900
     10 CA1          5.5830     0.0520     0.7680 c3         1 0FP       0.038700
     11 CB1          5.5770     1.6260     0.6420 c3         1 0FP      -0.046000
     12 CG1          5.3110     2.0660    -0.8250 c3         1 0FP      -0.088767
     13 CG2          4.4830     2.2450     1.5550 c3         1 0FP      -0.088767
     14 CG3          6.9470     2.2110     1.0920 c3         1 0FP      -0.088767
     15 C1           4.2550    -0.6270     0.3040 c          1 0FP       0.592100
     16 O1           4.1210    -1.1410    -0.8010 o          1 0FP      -0.619100
     17 N1           3.2380    -0.6450     1.2360 ns         1 0FP      -0.486900
     18 CA2          1.9030    -1.2570     1.0350 c3         1 0FP       0.040700
     19 CB2          1.7830    -2.6370     1.7860 c3         1 0FP      -0.045000
     20 CG11         1.9510    -2.4590     3.3210 c3         1 0FP      -0.089433
     21 CG21         0.4020    -3.2960     1.5130 c3         1 0FP      -0.089433
     22 CG31         2.8810    -3.6140     1.2770 c3         1 0FP      -0.089433
     23 C2           0.8120    -0.2160     1.4360 c          1 0FP       0.595100
     24 O2           0.9940     0.6550     2.2780 o          1 0FP      -0.611100
     25 N2          -0.3780    -0.3170     0.7460 ns         1 0FP      -0.475900
     26 CA3         -1.5590     0.5510     0.9370 c3         1 0FP       0.050700
     27 CB3         -1.5450     1.7390    -0.0640 c3         1 0FP      -0.175400
     28 CG4         -0.4570     2.7750     0.2740 c          1 0FP       0.600100
     29 OD1         -0.6550     3.5700     1.1840 o          1 0FP      -0.592100
     30 ND2          0.7400     2.8360    -0.4820 n          1 0FP      -0.408800
     31 CE1          1.7460     3.8810    -0.1820 c3         1 0FP       0.085300
     32 CE2          1.0190     1.9240    -1.6160 c3         1 0FP       0.085300
     33 C3          -2.8590    -0.2950     0.8100 c          1 0FP       0.589100
     34 O3          -2.8750    -1.4290     0.3450 o          1 0FP      -0.610100
     35 N3          -4.0070     0.3190     1.2660 ns         1 0FP      -0.494900
     36 CA4         -5.3440    -0.2830     1.2740 c3         1 0FP       0.093700
     37 C4          -6.4240     0.8190     1.0630 c3         1 0FP       0.076300
     38 O4          -6.3160     1.8350     2.0980 oh         1 0FP      -0.656000
     39 CB4         -5.5300    -1.1290     2.5560 c3         1 0FP      -0.113100
     40 C11         -7.8600     0.2180     0.9800 c          1 0FP       0.568100
     41 O11         -8.5850     0.1210     1.9630 o          1 0FP      -0.602100
     42 N21         -8.2810    -0.1360    -0.2850 ns         1 0FP      -0.490900
     43 C31         -9.5840    -0.7230    -0.6020 c3         1 0FP       0.160000
     44 C311        -9.5030    -2.2660    -0.7260 c3         1 0FP      -0.089400
     45 C32         -9.0840    -2.9900     0.5710 c3         1 0FP      -0.091100
     46 C41        -10.1520    -0.0710    -1.8620 ca         1 0FP      -0.100300
     47 C5         -11.3050     0.7370    -1.7760 ca         1 0FP      -0.095500
     48 C6         -11.8360     1.3460    -2.9260 ca         1 0FP      -0.109000
     49 C7         -11.2170     1.1550    -4.1730 ca         1 0FP      -0.104000
     50 C8         -10.0650     0.3570    -4.2680 ca         1 0FP      -0.109000
     51 C9          -9.5340    -0.2530    -3.1180 ca         1 0FP      -0.095500
     52 HA2          9.3320    -2.4600    -0.0300 hc         1 0FP       0.057200
     53 HA           8.3930    -1.7700    -1.3950 hc         1 0FP       0.057200
     54 HB1          9.6310     0.3880    -1.1250 hc         1 0FP       0.055700
     55 HB2         10.5730    -0.3130     0.1910 hc         1 0FP       0.055700
     56 HG1         11.4930    -2.0410    -1.3890 hc         1 0FP       0.035200
     57 HG2         10.5530    -1.3360    -2.7050 hc         1 0FP       0.035200
     58 HD1         11.8060     0.8260    -2.4440 hc         1 0FP       0.048200
     59 HD2         12.7490     0.1190    -1.1280 hc         1 0FP       0.048200
     60 HE1         13.6750    -1.6040    -2.7040 h1         1 0FP       0.024700
     61 HE2         12.7280    -0.8870    -4.0350 h1         1 0FP       0.024700
     62 HZ1         14.9450    -0.0970    -4.0730 hn         1 0FP       0.391000
     63 HZ2         13.9370     1.1290    -3.7820 hn         1 0FP       0.391000
     64 H            6.5860    -0.7000    -0.9820 hn         1 0FP       0.326500
     65 HA1          5.7030    -0.2070     1.8280 h1         1 0FP       0.089700
     66 HG11         4.3340     1.7150    -1.1770 hc         1 0FP       0.040033
     67 HG12         5.3200     3.1600    -0.9100 hc         1 0FP       0.040033
     68 HG13         6.0770     1.6740    -1.5040 hc         1 0FP       0.040033
     69 HG21         4.5990     1.9090     2.5930 hc         1 0FP       0.040033
     70 HG22         4.5440     3.3410     1.5510 hc         1 0FP       0.040033
     71 HG23         3.4770     1.9790     1.2160 hc         1 0FP       0.040033
     72 HG31         7.7590     1.8980     0.4250 hc         1 0FP       0.040033
     73 HG32         6.9270     3.3080     1.0840 hc         1 0FP       0.040033
     74 HG33         7.1950     1.8880     2.1100 hc         1 0FP       0.040033
     75 H1           3.4140    -0.1730     2.1160 hn         1 0FP       0.335500
     76 HA3          1.7650    -1.4400    -0.0380 h1         1 0FP       0.082700
     77 HG14         1.1760    -1.8020     3.7340 hc         1 0FP       0.040589
     78 HG15         1.8740    -3.4250     3.8360 hc         1 0FP       0.040589
     79 HG16         2.9290    -2.0290     3.5700 hc         1 0FP       0.040589
     80 HG24         0.2120    -3.3840     0.4360 hc         1 0FP       0.040589
     81 HG25         0.3580    -4.3050     1.9420 hc         1 0FP       0.040589
     82 HG26        -0.4160    -2.7210     1.9630 hc         1 0FP       0.040589
     83 HG34         3.8870    -3.2540     1.5230 hc         1 0FP       0.040589
     84 HG35         2.7690    -4.6050     1.7350 hc         1 0FP       0.040589
     85 HG36         2.8210    -3.7380     0.1890 hc         1 0FP       0.040589
     86 H2          -0.4650    -1.0910     0.0950 hn         1 0FP       0.325500
     87 HA11        -1.5510     0.9470     1.9620 h1         1 0FP       0.099700
     88 HB21        -1.4270     1.3330    -1.0730 hc         1 0FP       0.075700
     89 HB3         -2.5100     2.2540    -0.0020 hc         1 0FP       0.075700
     90 HE11         1.9510     3.9040     0.8960 h1         1 0FP       0.043367
     91 HE12         2.6870     3.6850    -0.7120 h1         1 0FP       0.043367
     92 HE13         1.3610     4.8600    -0.4940 h1         1 0FP       0.043367
     93 HE21         0.2870     2.0920    -2.4150 h1         1 0FP       0.043367
     94 HE22         2.0220     2.1040    -2.0230 h1         1 0FP       0.043367
     95 HE23         0.9640     0.8800    -1.2850 h1         1 0FP       0.043367
     96 H3          -3.9160     1.2580     1.6390 hn         1 0FP       0.331500
     97 HA4         -5.4100    -0.9680     0.4160 h1         1 0FP       0.076700
     98 HB11        -6.4950    -1.6490     2.5520 hc         1 0FP       0.050700
     99 HB22        -4.7450    -1.8900     2.6300 hc         1 0FP       0.050700
    100 HB31        -5.4790    -0.5010     3.4540 hc         1 0FP       0.050700
    101 HN2         -7.6340     0.0180    -1.0480 hn         1 0FP       0.319500
    102 HC3        -10.2730    -0.5010     0.2250 h1         1 0FP       0.078700
    103 H311       -10.4880    -2.6420    -1.0310 hc         1 0FP       0.051200
    104 H312        -8.8030    -2.5390    -1.5240 hc         1 0FP       0.051200
    105 H321        -9.1300    -4.0770     0.4310 hc         1 0FP       0.038033
    106 H322        -8.0570    -2.7300     0.8520 hc         1 0FP       0.038033
    107 H323        -9.7510    -2.7230     1.3990 hc         1 0FP       0.038033
    108 HC5        -11.7940     0.8940    -0.8160 ha         1 0FP       0.110000
    109 HC6        -12.7260     1.9660    -2.8510 ha         1 0FP       0.113500
    110 HC7        -11.6270     1.6270    -5.0630 ha         1 0FP       0.114000
    111 HC8         -9.5830     0.2100    -5.2320 ha         1 0FP       0.113500
    112 HC9         -8.6390    -0.8650    -3.2080 ha         1 0FP       0.110000
    113 H62         -6.2260     1.2830     0.0870 h1         1 0FP       0.072700
    114 H63         -6.9640     1.5900     2.8000 ho         1 0FP       0.479000
@<TRIPOS>BOND
     1     1     2 1   
     2     1     4 1   
     3     1    52 1   
     4     1    53 1   
     5     2     3 2   
     6     2     9 1   
     7     4     5 1   
     8     4    54 1   
     9     4    55 1   
    10     5     6 1   
    11     5    56 1   
    12     5    57 1   
    13     6     7 1   
    14     6    58 1   
    15     6    59 1   
    16     7     8 1   
    17     7    60 1   
    18     7    61 1   
    19     8    62 1   
    20     8    63 1   
    21     9    10 1   
    22     9    64 1   
    23    10    11 1   
    24    10    15 1   
    25    10    65 1   
    26    11    12 1   
    27    11    13 1   
    28    11    14 1   
    29    12    66 1   
    30    12    67 1   
    31    12    68 1   
    32    13    69 1   
    33    13    70 1   
    34    13    71 1   
    35    14    72 1   
    36    14    73 1   
    37    14    74 1   
    38    15    16 2   
    39    15    17 1   
    40    17    18 1   
    41    17    75 1   
    42    18    19 1   
    43    18    23 1   
    44    18    76 1   
    45    19    20 1   
    46    19    21 1   
    47    19    22 1   
    48    20    77 1   
    49    20    78 1   
    50    20    79 1   
    51    21    80 1   
    52    21    81 1   
    53    21    82 1   
    54    22    83 1   
    55    22    84 1   
    56    22    85 1   
    57    23    24 2   
    58    23    25 1   
    59    25    26 1   
    60    25    86 1   
    61    26    27 1   
    62    26    33 1   
    63    26    87 1   
    64    27    28 1   
    65    27    88 1   
    66    27    89 1   
    67    28    29 2   
    68    28    30 1   
    69    30    31 1   
    70    30    32 1   
    71    31    90 1   
    72    31    91 1   
    73    31    92 1   
    74    32    93 1   
    75    32    94 1   
    76    32    95 1   
    77    33    34 2   
    78    33    35 1   
    79    35    36 1   
    80    35    96 1   
    81    36    37 1   
    82    36    39 1   
    83    36    97 1   
    84    37    38 1   
    85    37    40 1   
    86    37   113 1   
    87    38   114 1   
    88    39    98 1   
    89    39    99 1   
    90    39   100 1   
    91    40    41 2   
    92    40    42 1   
    93    42    43 1   
    94    42   101 1   
    95    43    44 1   
    96    43    46 1   
    97    43   102 1   
    98    44    45 1   
    99    44   103 1   
   100    44   104 1   
   101    45   105 1   
   102    45   106 1   
   103    45   107 1   
   104    46    47 ar  
   105    46    51 ar  
   106    47    48 ar  
   107    47   108 1   
   108    48    49 ar  
   109    48   109 1   
   110    49    50 ar  
   111    49   110 1   
   112    50    51 ar  
   113    50   111 1   
   114    51   112 1   
@<TRIPOS>SUBSTRUCTURE
     1 0FP         1 TEMP              0 ****  ****    0 ROOT
