@<TRIPOS>MOLECULE
0FP
  114   114     1     0     0
SMALL
bcc


@<TRIPOS>ATOM
      1 CA           8.5730    -0.9070     0.3070 c3         1 0FP      -0.156400
      2 C            7.3060    -0.3920     0.9550 c          1 0FP       0.668100
      3 O            7.0330    -0.6200     2.1250 o          1 0FP      -0.607100
      4 CB           9.7550    -0.9980     1.2610 c3         1 0FP      -0.065400
      5 CG          10.9610    -1.6680     0.6130 c3         1 0FP      -0.077400
      6 CD          12.1560    -1.7730     1.5500 c3         1 0FP      -0.078400
      7 CE          13.3390    -2.4850     0.9130 c3         1 0FP       0.149800
      8 NZ          14.4640    -2.5600     1.8350 n8         1 0FP      -0.884800
      9 N            6.4950     0.3020     0.1320 ns         1 0FP      -0.563900
     10 CA1          5.1530     0.7080     0.4730 c3         1 0FP       0.038700
     11 CB1          4.9850     2.2520     0.5300 c3         1 0FP      -0.046000
     12 CG1          5.4250     2.9290    -0.7680 c3         1 0FP      -0.088767
     13 CG2          3.5220     2.6020     0.8150 c3         1 0FP      -0.088767
     14 CG3          5.8470     2.7710     1.6830 c3         1 0FP      -0.088767
     15 C1           4.1960     0.0520    -0.5170 c          1 0FP       0.659100
     16 O1           4.4330     0.0300    -1.7160 o          1 0FP      -0.619100
     17 N1           3.0980    -0.4890     0.0360 ns         1 0FP      -0.553900
     18 CA2          1.9750    -0.9880    -0.7220 c3         1 0FP       0.040700
     19 CB2          1.7970    -2.5240    -0.6090 c3         1 0FP      -0.045000
     20 CG11         1.5800    -2.9780     0.8340 c3         1 0FP      -0.089433
     21 CG21         0.6050    -2.9460    -1.4700 c3         1 0FP      -0.089433
     22 CG31         3.0630    -3.1860    -1.1590 c3         1 0FP      -0.089433
     23 C2           0.7510    -0.1950    -0.2690 c          1 0FP       0.662100
     24 O2           0.5050    -0.0100     0.9140 o          1 0FP      -0.611100
     25 N2          -0.0030     0.3120    -1.2500 ns         1 0FP      -0.542900
     26 CA3         -1.1690     1.1050    -0.9740 c3         1 0FP       0.050700
     27 CB3         -1.6200     1.8200    -2.2420 c3         1 0FP      -0.175400
     28 CG4         -0.6380     2.9080    -2.6580 c          1 0FP       0.667100
     29 OD1          0.2580     3.2650    -1.9060 o          1 0FP      -0.592100
     30 ND2         -0.8360     3.4590    -3.8730 n          1 0FP      -0.475800
     31 CE1          0.1040     4.4390    -4.3800 c3         1 0FP       0.085300
     32 CE2         -1.8250     2.9660    -4.8120 c3         1 0FP       0.085300
     33 C3          -2.3110     0.2260    -0.4550 c          1 0FP       0.656100
     34 O3          -2.4600    -0.9240    -0.8310 o          1 0FP      -0.610100
     35 N3          -3.1380     0.8590     0.3910 ns         1 0FP      -0.561900
     36 CA4         -4.3170     0.2670     0.9810 c3         1 0FP       0.093700
     37 C4          -5.5340     1.1500     0.6410 c3         1 0FP       0.053100
     38 O4          -5.3530     2.4570     1.0970 oh         1 0FP      -0.593800
     39 CB4         -4.1250     0.0620     2.4790 c3         1 0FP      -0.113100
     40 C11         -6.8020     0.5630     1.2550 c          1 0FP       0.635100
     41 O11         -7.3670     1.1450     2.1700 o          1 0FP      -0.602100
     42 N21         -7.1980    -0.6140     0.7600 ns         1 0FP      -0.557900
     43 C31         -8.3390    -1.3480     1.2730 c3         1 0FP       0.160000
     44 C311        -8.1710    -2.8360     0.9550 c3         1 0FP      -0.089400
     45 C32         -6.9370    -3.4580     1.5930 c3         1 0FP      -0.091100
     46 C41         -9.6510    -0.8220     0.7360 ca         1 0FP      -0.100300
     47 C5         -10.7590    -0.7470     1.5740 ca         1 0FP      -0.113500
     48 C6         -11.9890    -0.3230     1.0890 ca         1 0FP      -0.127000
     49 C7         -12.1240     0.0340    -0.2460 ca         1 0FP      -0.122000
     50 C8         -11.0220    -0.0360    -1.0890 ca         1 0FP      -0.127000
     51 C9          -9.7940    -0.4620    -0.6010 ca         1 0FP      -0.113500
     52 HA2          8.3400    -1.9060    -0.0810 hc         1 0FP       0.057200
     53 HA           8.8350    -0.3030    -0.5650 hc         1 0FP       0.057200
     54 HB1         10.0320     0.0040     1.6020 hc         1 0FP       0.055700
     55 HB2          9.4660    -1.5600     2.1520 hc         1 0FP       0.055700
     56 HG1         10.6740    -2.6700     0.2750 hc         1 0FP       0.035200
     57 HG2         11.2500    -1.1150    -0.2880 hc         1 0FP       0.035200
     58 HD1         12.4630    -0.7690     1.8630 hc         1 0FP       0.048200
     59 HD2         11.8660    -2.3050     2.4620 hc         1 0FP       0.048200
     60 HE1         13.0410    -3.5050     0.6540 h1         1 0FP       0.024700
     61 HE2         13.5830    -1.9880    -0.0370 h1         1 0FP       0.024700
     62 HZ1         15.2200    -3.0790     1.4070 hn         1 0FP       0.335800
     63 HZ2         14.8300    -1.6280     1.9890 hn         1 0FP       0.335800
     64 H            6.7730     0.4050    -0.8320 hn         1 0FP       0.326500
     65 HA1          4.9490     0.3260     1.4760 h1         1 0FP       0.089700
     66 HG11         4.8350     2.6070    -1.6260 hc         1 0FP       0.040033
     67 HG12         5.3060     4.0100    -0.6750 hc         1 0FP       0.040033
     68 HG13         6.4770     2.7410    -0.9880 hc         1 0FP       0.040033
     69 HG21         3.1390     2.0640     1.6850 hc         1 0FP       0.040033
     70 HG22         3.4330     3.6680     1.0290 hc         1 0FP       0.040033
     71 HG23         2.8630     2.3910    -0.0300 hc         1 0FP       0.040033
     72 HG31         6.9030     2.5390     1.5380 hc         1 0FP       0.040033
     73 HG32         5.7560     3.8570     1.7600 hc         1 0FP       0.040033
     74 HG33         5.5350     2.3420     2.6380 hc         1 0FP       0.040033
     75 H1           2.9720    -0.4040     1.0330 hn         1 0FP       0.335500
     76 HA3          2.1790    -0.7660    -1.7720 h1         1 0FP       0.082700
     77 HG14         0.6470    -2.6040     1.2540 hc         1 0FP       0.040589
     78 HG15         1.5440    -4.0680     0.8740 hc         1 0FP       0.040589
     79 HG16         2.3960    -2.6600     1.4860 hc         1 0FP       0.040589
     80 HG24         0.7370    -2.6350    -2.5090 hc         1 0FP       0.040589
     81 HG25         0.5060    -4.0320    -1.4630 hc         1 0FP       0.040589
     82 HG26        -0.3380    -2.5280    -1.1150 hc         1 0FP       0.040589
     83 HG34         3.9460    -2.9290    -0.5720 hc         1 0FP       0.040589
     84 HG35         2.9580    -4.2720    -1.1350 hc         1 0FP       0.040589
     85 HG36         3.2480    -2.8910    -2.1930 hc         1 0FP       0.040589
     86 H2           0.2280     0.1040    -2.2080 hn         1 0FP       0.325500
     87 HA11        -0.9170     1.8510    -0.2160 h1         1 0FP       0.099700
     88 HB21        -1.7670     1.0890    -3.0410 hc         1 0FP       0.075700
     89 HB3         -2.5990     2.2770    -2.0710 hc         1 0FP       0.075700
     90 HE11         0.8580     3.9760    -5.0220 h1         1 0FP       0.043367
     91 HE12        -0.4310     5.1840    -4.9670 h1         1 0FP       0.043367
     92 HE13         0.6100     4.9430    -3.5630 h1         1 0FP       0.043367
     93 HE21        -2.7730     2.7490    -4.3240 h1         1 0FP       0.043367
     94 HE22        -2.0150     3.7360    -5.5550 h1         1 0FP       0.043367
     95 HE23        -1.4890     2.0670    -5.3360 h1         1 0FP       0.043367
     96 H3          -2.8970     1.7910     0.6950 hn         1 0FP       0.331500
     97 HA4         -4.4540    -0.7060     0.5050 h1         1 0FP       0.076700
     98 HB11        -4.9810    -0.4420     2.9290 hc         1 0FP       0.050700
     99 HB22        -3.2490    -0.5580     2.6590 hc         1 0FP       0.050700
    100 HB31        -3.9780     1.0110     2.9970 hc         1 0FP       0.050700
    101 HN2         -6.7130    -0.9880    -0.0420 hn         1 0FP       0.319500
    102 HC3         -8.3420    -1.2310     2.3600 h1         1 0FP       0.078700
    103 H311        -9.0670    -3.3500     1.3070 hc         1 0FP       0.051200
    104 H312        -8.1500    -2.9710    -0.1310 hc         1 0FP       0.051200
    105 H321        -6.9090    -4.5300     1.4030 hc         1 0FP       0.038033
    106 H322        -6.0110    -3.0350     1.2030 hc         1 0FP       0.038033
    107 H323        -6.9380    -3.3120     2.6740 hc         1 0FP       0.038033
    108 HC5        -10.6570    -1.0180     2.6180 ha         1 0FP       0.128000
    109 HC6        -12.8390    -0.2670     1.7570 ha         1 0FP       0.131500
    110 HC7        -13.0810     0.3670    -0.6270 ha         1 0FP       0.132000
    111 HC8        -11.1190     0.2410    -2.1310 ha         1 0FP       0.131500
    112 HC9         -8.9440    -0.5050    -1.2720 ha         1 0FP       0.128000
    113 H62         -5.6390     1.1660    -0.4510 h1         1 0FP       0.072700
    114 H63         -5.9120     2.5630     1.8800 ho         1 0FP       0.440000
@<TRIPOS>BOND
     1     1     2 1   
     2     1     4 1   
     3     1    52 1   
     4     1    53 1   
     5     2     3 2   
     6     2     9 1   
     7     4     5 1   
     8     4    54 1   
     9     4    55 1   
    10     5     6 1   
    11     5    56 1   
    12     5    57 1   
    13     6     7 1   
    14     6    58 1   
    15     6    59 1   
    16     7     8 1   
    17     7    60 1   
    18     7    61 1   
    19     8    62 1   
    20     8    63 1   
    21     9    10 1   
    22     9    64 1   
    23    10    11 1   
    24    10    15 1   
    25    10    65 1   
    26    11    12 1   
    27    11    13 1   
    28    11    14 1   
    29    12    66 1   
    30    12    67 1   
    31    12    68 1   
    32    13    69 1   
    33    13    70 1   
    34    13    71 1   
    35    14    72 1   
    36    14    73 1   
    37    14    74 1   
    38    15    16 2   
    39    15    17 1   
    40    17    18 1   
    41    17    75 1   
    42    18    19 1   
    43    18    23 1   
    44    18    76 1   
    45    19    20 1   
    46    19    21 1   
    47    19    22 1   
    48    20    77 1   
    49    20    78 1   
    50    20    79 1   
    51    21    80 1   
    52    21    81 1   
    53    21    82 1   
    54    22    83 1   
    55    22    84 1   
    56    22    85 1   
    57    23    24 2   
    58    23    25 1   
    59    25    26 1   
    60    25    86 1   
    61    26    27 1   
    62    26    33 1   
    63    26    87 1   
    64    27    28 1   
    65    27    88 1   
    66    27    89 1   
    67    28    29 2   
    68    28    30 1   
    69    30    31 1   
    70    30    32 1   
    71    31    90 1   
    72    31    91 1   
    73    31    92 1   
    74    32    93 1   
    75    32    94 1   
    76    32    95 1   
    77    33    34 2   
    78    33    35 1   
    79    35    36 1   
    80    35    96 1   
    81    36    37 1   
    82    36    39 1   
    83    36    97 1   
    84    37    38 1   
    85    37    40 1   
    86    37   113 1   
    87    38   114 1   
    88    39    98 1   
    89    39    99 1   
    90    39   100 1   
    91    40    41 2   
    92    40    42 1   
    93    42    43 1   
    94    42   101 1   
    95    43    44 1   
    96    43    46 1   
    97    43   102 1   
    98    44    45 1   
    99    44   103 1   
   100    44   104 1   
   101    45   105 1   
   102    45   106 1   
   103    45   107 1   
   104    46    47 ar  
   105    46    51 ar  
   106    47    48 ar  
   107    47   108 1   
   108    48    49 ar  
   109    48   109 1   
   110    49    50 ar  
   111    49   110 1   
   112    50    51 ar  
   113    50   111 1   
   114    51   112 1   
@<TRIPOS>SUBSTRUCTURE
     1 0FP         1 TEMP              0 ****  ****    0 ROOT
