@<TRIPOS>MOLECULE
0FR
   25    27     1     0     0
SMALL
bcc


@<TRIPOS>ATOM
      1 CAI          3.6500     1.0420     0.0280 ca         1 0FR      -0.142000
      2 CAH          4.3240    -0.1630     0.0510 ca         1 0FR      -0.112000
      3 CAG          3.6270    -1.3790     0.0530 ca         1 0FR      -0.151000
      4 CAF          2.2450    -1.4210     0.0330 ca         1 0FR      -0.071000
      5 CAE          1.5340    -0.2150     0.0100 ca         1 0FR      -0.051800
      6 CAD          2.2600     0.9920     0.0080 ca         1 0FR      -0.069200
      7 NAC          1.3500     2.0180    -0.0170 na         1 0FR      -0.158400
      8 CAB          0.0990     1.5300    -0.0290 cc         1 0FR      -0.031100
      9 CAA          0.1350     0.1460    -0.0130 cd         1 0FR      -0.241400
     10 CAJ         -0.9600    -0.8060    -0.0230 c          1 0FR       0.546800
     11 OAP         -0.7490    -2.0140    -0.0370 o          1 0FR      -0.539100
     12 CAK         -2.3630    -0.3750    -0.0140 cc         1 0FR       0.158200
     13 OAL         -2.7020     0.9330     0.0190 os         1 0FR      -0.325800
     14 CAM         -4.0400     1.0110     0.0220 cc         1 0FR       0.247600
     15 CAN         -4.5870    -0.2310    -0.0080 cd         1 0FR      -0.283300
     16 CAO         -3.4950    -1.1360    -0.0310 cd         1 0FR      -0.193300
     17 H1           4.1800     1.9860     0.0250 ha         1 0FR       0.131000
     18 H2           5.4060    -0.1680     0.0660 ha         1 0FR       0.130000
     19 H3           4.1860    -2.3060     0.0720 ha         1 0FR       0.131000
     20 H4           1.7290    -2.3690     0.0350 ha         1 0FR       0.157000
     21 H5           1.5760     3.0000    -0.0260 hn         1 0FR       0.301700
     22 H6          -0.7350     2.2090    -0.0520 h4         1 0FR       0.175000
     23 H7          -4.4680     2.0010     0.0470 h4         1 0FR       0.052100
     24 H8          -5.6380    -0.4670    -0.0120 ha         1 0FR       0.163000
     25 H9          -3.5410    -2.2120    -0.0580 ha         1 0FR       0.175000
@<TRIPOS>BOND
     1     1     2 ar  
     2     1     6 ar  
     3     1    17 1   
     4     2     3 ar  
     5     2    18 1   
     6     3     4 ar  
     7     3    19 1   
     8     4     5 ar  
     9     4    20 1   
    10     5     6 ar  
    11     5     9 1   
    12     6     7 1   
    13     7     8 1   
    14     7    21 1   
    15     8     9 2   
    16     8    22 1   
    17     9    10 1   
    18    10    11 2   
    19    10    12 1   
    20    12    13 1   
    21    12    16 2   
    22    13    14 1   
    23    14    15 2   
    24    14    23 1   
    25    15    16 1   
    26    15    24 1   
    27    16    25 1   
@<TRIPOS>SUBSTRUCTURE
     1 0FR         1 TEMP              0 ****  ****    0 ROOT
