@<TRIPOS>MOLECULE
0FR
   25    27     1     0     0
SMALL
No Charge or Current Charge


@<TRIPOS>ATOM
      1 CAI          3.6840     1.0270     0.0230 ca         1 0FR      -0.124000
      2 CAH          4.3800    -0.2000     0.0320 ca         1 0FR      -0.094000
      3 CAG          3.6680    -1.4230     0.0320 ca         1 0FR      -0.133000
      4 CAF          2.2560    -1.4310     0.0240 ca         1 0FR      -0.053000
      5 CAE          1.5910    -0.1920     0.0150 ca         1 0FR      -0.051800
      6 CAD          2.2840     0.9880     0.0150 ca         1 0FR      -0.069200
      7 NAC          1.3960     2.0460     0.0060 na         1 0FR      -0.208700
      8 CAB          0.0690     1.5710     0.0000 cc         1 0FR      -0.081100
      9 CAA          0.1810     0.1780     0.0060 cd         1 0FR      -0.241400
     10 CAJ         -0.9660    -0.7980     0.0030 c          1 0FR       0.546800
     11 OAP         -0.7450    -2.0050     0.0080 o          1 0FR      -0.539100
     12 CAK         -2.3830    -0.3080    -0.0070 cc         1 0FR       0.048500
     13 OAL         -2.7850     1.0140    -0.0140 os         1 0FR      -0.237000
     14 CAM         -4.1620     1.0190    -0.0220 cc         1 0FR       0.137900
     15 CAN         -4.6210    -0.2690    -0.0200 cd         1 0FR      -0.200000
     16 CAO         -3.4930    -1.1140    -0.0110 cd         1 0FR      -0.110000
     17 H1           4.2210     1.9730     0.0230 ha         1 0FR       0.113000
     18 H2           5.4680    -0.2060     0.0380 ha         1 0FR       0.112000
     19 H3           4.2120    -2.3650     0.0380 ha         1 0FR       0.113000
     20 H4           1.7150    -2.3730     0.0240 ha         1 0FR       0.139000
     21 H5           1.6640     3.0260     0.0050 hn         1 0FR       0.352000
     22 H6          -0.7800     2.2470    -0.0070 h4         1 0FR       0.225000
     23 H7          -4.6690     1.9750    -0.0290 h4         1 0FR       0.052100
     24 H8          -5.6620    -0.5740    -0.0250 ha         1 0FR       0.145000
     25 H9          -3.4960    -2.2010    -0.0070 ha         1 0FR       0.157000
@<TRIPOS>BOND
     1     1     2 ar  
     2     1     6 ar  
     3     1    17 1   
     4     2     3 ar  
     5     2    18 1   
     6     3     4 ar  
     7     3    19 1   
     8     4     5 ar  
     9     4    20 1   
    10     5     6 ar  
    11     5     9 1   
    12     6     7 1   
    13     7     8 1   
    14     7    21 1   
    15     8     9 2   
    16     8    22 1   
    17     9    10 1   
    18    10    11 2   
    19    10    12 1   
    20    12    13 1   
    21    12    16 2   
    22    13    14 1   
    23    14    15 2   
    24    14    23 1   
    25    15    16 1   
    26    15    24 1   
    27    16    25 1   
@<TRIPOS>SUBSTRUCTURE
     1 0FR         1 TEMP              0 ****  ****    0 ROOT
