@<TRIPOS>MOLECULE
0FS
   24    25     1     0     0
SMALL
No Charge or Current Charge


@<TRIPOS>ATOM
      1 C01         -1.1120     2.6810    -0.1550 ca         1 0FS      -0.055000
      2 C02         -3.2490     1.5150    -0.1230 ca         1 0FS      -0.040000
      3 C03         -2.5150     2.7090    -0.1770 ca         1 0FS      -0.120000
      4 C04         -2.5780     0.2770    -0.0490 ca         1 0FS      -0.200300
      5 C05         -0.4160     1.4560    -0.0750 ca         1 0FS      -0.087800
      6 C06         -1.1650     0.2600    -0.0200 ca         1 0FS      -0.033000
      7 C07          3.5100     0.9450     0.0250 c          1 0FS       0.584200
      8 N08          4.2550    -0.1860     0.0930 ns         1 0FS      -0.479500
      9 C09          3.6980    -1.4230     0.1400 c          1 0FS       0.596600
     10 S10          1.9000    -1.1910     0.0930 ss         1 0FS      -0.174200
     11 C11          2.0820     0.5630     0.0140 cc         1 0FS      -0.119600
     12 C12         -3.3540    -1.0430     0.0210 c3         1 0FS       0.358300
     13 C13          1.0700     1.4920    -0.0500 cf         1 0FS      -0.038200
     14 O15          4.3120    -2.4740     0.2020 o          1 0FS      -0.458000
     15 F16         -3.3670    -1.5380     1.2780 f          1 0FS      -0.110333
     16 F17         -4.6450    -0.9150    -0.3650 f          1 0FS      -0.110333
     17 F18         -2.8060    -1.9920    -0.7720 f          1 0FS      -0.110333
     18 H1          -0.5670     3.6220    -0.1990 ha         1 0FS       0.124000
     19 H2          -4.3360     1.5620    -0.1350 ha         1 0FS       0.136000
     20 H3          -3.0370     3.6620    -0.2350 ha         1 0FS       0.128000
     21 H4          -0.6680    -0.6990     0.0500 ha         1 0FS       0.139000
     22 H5           5.2600    -0.1050     0.1100 hn         1 0FS       0.353500
     23 H6           1.4570     2.5130    -0.0920 ha         1 0FS       0.205000
     24 O14          3.9830     2.0690    -0.0180 o          1 0FS      -0.488000
@<TRIPOS>BOND
     1     1     3 ar  
     2     1     5 ar  
     3     1    18 1   
     4     2     3 ar  
     5     2     4 ar  
     6     2    19 1   
     7     3    20 1   
     8     4     6 ar  
     9     4    12 1   
    10     5     6 ar  
    11     5    13 1   
    12     6    21 1   
    13     7     8 1   
    14     7    11 1   
    15     7    24 2   
    16     8     9 1   
    17     8    22 1   
    18     9    10 1   
    19     9    14 2   
    20    10    11 1   
    21    11    13 2   
    22    12    15 1   
    23    12    16 1   
    24    12    17 1   
    25    13    23 1   
@<TRIPOS>SUBSTRUCTURE
     1 0FS         1 TEMP              0 ****  ****    0 ROOT
