@<TRIPOS>MOLECULE
0FS
   24    25     1     0     0
SMALL
bcc


@<TRIPOS>ATOM
      1 C01         -1.0830     2.6450    -0.3060 ca         1 0FS      -0.073000
      2 C02         -3.1620     1.4440    -0.3680 ca         1 0FS      -0.058000
      3 C03         -2.4480     2.6250    -0.5190 ca         1 0FS      -0.138000
      4 C04         -2.4940     0.2860     0.0070 ca         1 0FS      -0.200300
      5 C05         -0.3950     1.4770     0.0430 ca         1 0FS      -0.087800
      6 C06         -1.1210     0.2990     0.2110 ca         1 0FS      -0.051000
      7 C07          3.4160     0.9180     0.2990 c          1 0FS       0.726700
      8 N08          4.1620    -0.2080     0.0570 ns         1 0FS      -0.613500
      9 C09          3.5150    -1.3640    -0.2840 c          1 0FS       0.739100
     10 S10          1.7600    -1.0760    -0.3170 ss         1 0FS      -0.174200
     11 C11          1.9750     0.6100     0.1120 cc         1 0FS      -0.119600
     12 C12         -3.2260    -1.0080     0.1970 c3         1 0FS       0.722200
     13 C13          1.0470     1.5690     0.2170 cf         1 0FS       0.011800
     14 O15          4.0200    -2.4240    -0.5240 o          1 0FS      -0.533500
     15 F16         -3.0110    -1.5220     1.4150 f          1 0FS      -0.231633
     16 F17         -4.5450    -0.8790     0.0500 f          1 0FS      -0.231633
     17 F18         -2.8190    -1.9330    -0.6840 f          1 0FS      -0.231633
     18 H1          -0.5340     3.5710    -0.4190 ha         1 0FS       0.142000
     19 H2          -4.2300     1.4450    -0.5350 ha         1 0FS       0.154000
     20 H3          -2.9650     3.5320    -0.8000 ha         1 0FS       0.146000
     21 H4          -0.6270    -0.6040     0.5480 ha         1 0FS       0.157000
     22 H5           5.1730    -0.1940     0.1230 hn         1 0FS       0.353500
     23 H6           1.4270     2.5630     0.4270 ha         1 0FS       0.155000
     24 O14          3.8770     1.9890     0.6100 o          1 0FS      -0.563500
@<TRIPOS>BOND
     1     1     3 ar  
     2     1     5 ar  
     3     1    18 1   
     4     2     3 ar  
     5     2     4 ar  
     6     2    19 1   
     7     3    20 1   
     8     4     6 ar  
     9     4    12 1   
    10     5     6 ar  
    11     5    13 1   
    12     6    21 1   
    13     7     8 1   
    14     7    11 1   
    15     7    24 2   
    16     8     9 1   
    17     8    22 1   
    18     9    10 1   
    19     9    14 2   
    20    10    11 1   
    21    11    13 2   
    22    12    15 1   
    23    12    16 1   
    24    12    17 1   
    25    13    23 1   
@<TRIPOS>SUBSTRUCTURE
     1 0FS         1 TEMP              0 ****  ****    0 ROOT
