@<TRIPOS>MOLECULE
0FT
   41    43     1     0     0
SMALL
abcg2


@<TRIPOS>ATOM
      1 C4          -4.8520    -1.2980    -0.0220 c          1 0FT       0.588200
      2 C5          -4.6650    -0.3820     1.0850 cc         1 0FT      -0.267400
      3 C6          -3.8160     0.6470     0.9140 cd         1 0FT       0.004600
      4 C8          -0.7740     1.5340    -0.1040 cc         1 0FT       0.147300
      5 C9           0.2140     1.2650    -1.0110 cd         1 0FT      -0.140000
      6 N1          -3.1280     0.8840    -0.2440 n          1 0FT      -0.306000
      7 N3          -4.1070    -0.9970    -1.1490 ns         1 0FT      -0.465500
      8 C2          -3.2350     0.0450    -1.3250 c          1 0FT       0.617000
      9 O4          -5.5910    -2.2660    -0.0100 o          1 0FT      -0.530000
     10 C5A         -5.4200    -0.6180     2.3520 c3         1 0FT      -0.017900
     11 N5          -0.2790     1.2930     1.1320 nc         1 0FT      -0.353000
     12 N6           0.9410     0.9030     1.0320 nd         1 0FT      -0.193800
     13 N7           1.2560     0.8850    -0.2540 na         1 0FT       0.108800
     14 C1           2.5670     0.4540    -0.6970 c5         1 0FT       0.319300
     15 O1           2.7390    -0.9050    -0.4270 os         1 0FT      -0.422000
     16 C10          3.9610    -1.1250     0.2790 c5         1 0FT       0.165300
     17 C11          4.6040    -2.4060    -0.1870 c3         1 0FT       0.167600
     18 O5           3.7910    -3.4900     0.1890 oh         1 0FT      -0.702000
     19 C3           4.7950     0.1180    -0.0030 c5         1 0FT       0.103300
     20 O3           5.7830     0.2790     0.9750 oh         1 0FT      -0.697000
     21 C12          3.7130     1.1960    -0.0120 c5         1 0FT       0.093300
     22 O2           3.9980     2.3640    -0.7230 oh         1 0FT      -0.706000
     23 H1          -3.6380     1.3640     1.7030 h4         1 0FT       0.211000
     24 H2          -2.4570     2.7170     0.4320 h1         1 0FT       0.075200
     25 H3          -2.2720     2.4750    -1.2920 h1         1 0FT       0.075200
     26 H4           0.2520     1.3150    -2.0860 h4         1 0FT       0.182000
     27 H5          -4.2100    -1.6170    -1.9440 hn         1 0FT       0.342500
     28 H6          -6.4970    -0.6060     2.1810 hc         1 0FT       0.046700
     29 H7          -5.1730    -1.5870     2.7870 hc         1 0FT       0.046700
     30 H8          -5.1890     0.1490     3.0900 hc         1 0FT       0.046700
     31 H9           2.5880     0.6400    -1.7760 h2         1 0FT       0.090700
     32 H10          3.7590    -1.1900     1.3580 h1         1 0FT       0.093700
     33 H11          4.7490    -2.3580    -1.2750 h1         1 0FT       0.030200
     34 H12          5.6010    -2.4630     0.2690 h1         1 0FT       0.030200
     35 H13          4.2160    -4.3000    -0.1040 ho         1 0FT       0.507000
     36 H14          5.2310     0.0470    -1.0110 h1         1 0FT       0.053700
     37 H15          6.4790     0.8400     0.6230 ho         1 0FT       0.513000
     38 H16          3.4420     1.4100     1.0310 h1         1 0FT       0.088700
     39 H17          4.5540     2.9310    -0.1800 ho         1 0FT       0.520000
     40 C7          -2.1740     1.9870    -0.3250 c3         1 0FT       0.100700
     41 O6          -2.6110     0.2120    -2.3540 o          1 0FT      -0.569000
@<TRIPOS>BOND
     1     1     2 1   
     2     1     7 1   
     3     1     9 2   
     4     2     3 2   
     5     2    10 1   
     6     3     6 1   
     7     3    23 1   
     8     4     5 2   
     9     4    11 1   
    10     4    40 1   
    11     5    13 1   
    12     5    26 1   
    13     6     8 1   
    14     6    40 1   
    15     7     8 1   
    16     7    27 1   
    17     8    41 2   
    18    10    28 1   
    19    10    29 1   
    20    10    30 1   
    21    11    12 2   
    22    12    13 1   
    23    13    14 1   
    24    14    15 1   
    25    14    21 1   
    26    14    31 1   
    27    15    16 1   
    28    16    17 1   
    29    16    19 1   
    30    16    32 1   
    31    17    18 1   
    32    17    33 1   
    33    17    34 1   
    34    18    35 1   
    35    19    20 1   
    36    19    21 1   
    37    19    36 1   
    38    20    37 1   
    39    21    22 1   
    40    21    38 1   
    41    22    39 1   
    42    24    40 1   
    43    25    40 1   
@<TRIPOS>SUBSTRUCTURE
     1 0FT         1 TEMP              0 ****  ****    0 ROOT
