@<TRIPOS>MOLECULE
0FT
   41    43     1     0     0
SMALL
No Charge or Current Charge


@<TRIPOS>ATOM
      1 C4          -4.9710    -1.0460    -0.4910 c          1 0FT       0.588200
      2 C5          -4.6070    -0.6150     0.8780 cc         1 0FT      -0.267400
      3 C6          -3.7010     0.4100     1.0550 cd         1 0FT       0.004600
      4 C8          -0.7370     1.6220     0.2280 cc         1 0FT       0.147300
      5 C9           0.0650     1.2560    -0.8080 cd         1 0FT      -0.140000
      6 N1          -3.1300     1.0490    -0.0420 n          1 0FT      -0.306000
      7 N3          -4.3410    -0.3570    -1.4780 ns         1 0FT      -0.465500
      8 C2          -3.4440     0.6540    -1.3590 c          1 0FT       0.617000
      9 O4          -5.7610    -1.9380    -0.7540 o          1 0FT      -0.530000
     10 C5A         -5.2750    -1.3600     2.0100 c3         1 0FT      -0.017900
     11 N5          -0.0930     1.4480     1.4200 nc         1 0FT      -0.353000
     12 N6           1.1050     0.9790     1.1770 nd         1 0FT      -0.193800
     13 N7           1.2270     0.8510    -0.1880 na         1 0FT       0.108800
     14 C1           2.4650     0.3470    -0.8060 c5         1 0FT       0.319300
     15 O1           2.7480    -1.0080    -0.3570 os         1 0FT      -0.422000
     16 C10          3.9550    -0.9710     0.4390 c5         1 0FT       0.165300
     17 C11          4.5700    -2.3920     0.5760 c3         1 0FT       0.167600
     18 O5           3.7720    -3.2310     1.4350 oh         1 0FT      -0.702000
     19 C3           4.8220     0.0440    -0.3550 c5         1 0FT       0.103300
     20 O3           6.0070     0.4730     0.3340 oh         1 0FT      -0.697000
     21 C12          3.7670     1.1810    -0.5080 c5         1 0FT       0.093300
     22 O2           4.1170     2.1280    -1.5380 oh         1 0FT      -0.706000
     23 H1          -3.3710     0.7850     2.0220 h4         1 0FT       0.211000
     24 H2          -2.3850     2.6730     1.0970 h1         1 0FT       0.075200
     25 H3          -2.2280     2.8780    -0.6480 h1         1 0FT       0.075200
     26 H4          -0.0960     1.2490    -1.8780 h4         1 0FT       0.182000
     27 H5          -4.5670    -0.6330    -2.4200 hn         1 0FT       0.342500
     28 H6          -6.3660    -1.2540     1.9620 hc         1 0FT       0.046700
     29 H7          -5.0360    -2.4300     1.9740 hc         1 0FT       0.046700
     30 H8          -4.9490    -0.9790     2.9860 hc         1 0FT       0.046700
     31 H9           2.2720     0.3290    -1.8840 h2         1 0FT       0.090700
     32 H10          3.7190    -0.5880     1.4420 h1         1 0FT       0.093700
     33 H11          4.6590    -2.8380    -0.4240 h1         1 0FT       0.030200
     34 H12          5.5830    -2.2950     0.9870 h1         1 0FT       0.030200
     35 H13          4.1900    -4.1240     1.4350 ho         1 0FT       0.507000
     36 H14          5.0830    -0.3810    -1.3360 h1         1 0FT       0.053700
     37 H15          6.6710     0.7320    -0.3500 ho         1 0FT       0.513000
     38 H16          3.6490     1.7020     0.4550 h1         1 0FT       0.088700
     39 H17          4.8580     2.6800    -1.1900 ho         1 0FT       0.520000
     40 C7          -2.1500     2.1440     0.1650 c3         1 0FT       0.100700
     41 O6          -2.9540     1.1700    -2.3500 o          1 0FT      -0.569000
@<TRIPOS>BOND
     1     1     2 1   
     2     1     7 1   
     3     1     9 2   
     4     2     3 2   
     5     2    10 1   
     6     3     6 1   
     7     3    23 1   
     8     4     5 2   
     9     4    11 1   
    10     4    40 1   
    11     5    13 1   
    12     5    26 1   
    13     6     8 1   
    14     6    40 1   
    15     7     8 1   
    16     7    27 1   
    17     8    41 2   
    18    10    28 1   
    19    10    29 1   
    20    10    30 1   
    21    11    12 2   
    22    12    13 1   
    23    13    14 1   
    24    14    15 1   
    25    14    21 1   
    26    14    31 1   
    27    15    16 1   
    28    16    17 1   
    29    16    19 1   
    30    16    32 1   
    31    17    18 1   
    32    17    33 1   
    33    17    34 1   
    34    18    35 1   
    35    19    20 1   
    36    19    21 1   
    37    19    36 1   
    38    20    37 1   
    39    21    22 1   
    40    21    38 1   
    41    22    39 1   
    42    24    40 1   
    43    25    40 1   
@<TRIPOS>SUBSTRUCTURE
     1 0FT         1 TEMP              0 ****  ****    0 ROOT
