@<TRIPOS>MOLECULE
0FU
   17    17     1     0     0
SMALL
abcg2


@<TRIPOS>ATOM
      1 C4           0.4520     1.0710    -0.0790 ca         1 0FU       0.376300
      2 N3          -0.8710     1.1530    -0.1110 nb         1 0FU      -0.369000
      3 C2          -1.5280    -0.0070    -0.1160 ca         1 0FU       0.435900
      4 NAA         -2.8800     0.0590    -0.1950 nv         1 0FU      -1.047900
      5 N1          -0.9830    -1.2190    -0.0850 nb         1 0FU      -0.341000
      6 C6           0.3510    -1.2770    -0.0540 ca         1 0FU       0.443900
      7 NAB          0.9220    -2.4930     0.0130 nv         1 0FU      -1.053900
      8 C5           1.1570    -0.1230    -0.0550 ca         1 0FU      -0.048000
      9 NAC          2.5700    -0.2490    -0.0430 nv         1 0FU      -1.024000
     10 O4           1.1380     2.2130    -0.0760 oh         1 0FU      -0.653300
     11 H1          -3.3990    -0.7650     0.0560 hn         1 0FU       0.485500
     12 H2          -3.3160     0.9350     0.0360 hn         1 0FU       0.485500
     13 H3           0.3660    -3.3040    -0.1970 hn         1 0FU       0.497500
     14 H4           1.9160    -2.5530    -0.1270 hn         1 0FU       0.497500
     15 H7           3.0020     0.2960    -0.7770 hn         1 0FU       0.413500
     16 H8           2.9720     0.0620     0.8330 hn         1 0FU       0.413500
     17 H71          0.5110     2.9480    -0.1090 ho         1 0FU       0.489000
@<TRIPOS>BOND
     1     1     2 ar  
     2     1     8 ar  
     3     1    10 1   
     4     2     3 ar  
     5     3     4 1   
     6     3     5 ar  
     7     4    11 1   
     8     4    12 1   
     9     5     6 ar  
    10     6     7 1   
    11     6     8 ar  
    12     7    13 1   
    13     7    14 1   
    14     8     9 1   
    15     9    15 1   
    16     9    16 1   
    17    10    17 1   
@<TRIPOS>SUBSTRUCTURE
     1 0FU         1 TEMP              0 ****  ****    0 ROOT
