@<TRIPOS>MOLECULE
0FU
   17    17     1     0     0
SMALL
No Charge or Current Charge


@<TRIPOS>ATOM
      1 C4           0.4360     1.1430    -0.2180 ca         1 0FU       0.376300
      2 N3          -0.9040     1.1670    -0.2400 nb         1 0FU      -0.369000
      3 C2          -1.5090    -0.0160    -0.1220 ca         1 0FU       0.435900
      4 NAA         -2.8550     0.0140    -0.1440 nv         1 0FU      -1.047900
      5 N1          -0.9510    -1.2190     0.0170 nb         1 0FU      -0.341000
      6 C6           0.3850    -1.2380     0.0400 ca         1 0FU       0.443900
      7 NAB          0.9210    -2.4880     0.1570 nv         1 0FU      -1.053900
      8 C5           1.1840    -0.0620    -0.0730 ca         1 0FU      -0.048000
      9 NAC          2.5970    -0.0710    -0.0380 nv         1 0FU      -1.024000
     10 O4           1.0510     2.3520    -0.3320 oh         1 0FU      -0.653300
     11 H1          -3.3560    -0.8120     0.1710 hn         1 0FU       0.485500
     12 H2          -3.3190     0.9090    -0.0180 hn         1 0FU       0.485500
     13 H3           0.2970    -3.2740     0.0010 hn         1 0FU       0.497500
     14 H4           1.8770    -2.6140    -0.1620 hn         1 0FU       0.497500
     15 H7           3.0930     0.8210    -0.0390 hn         1 0FU       0.413500
     16 H8           3.1020    -0.8760     0.3330 hn         1 0FU       0.413500
     17 H71          0.3300     3.0120    -0.4170 ho         1 0FU       0.489000
@<TRIPOS>BOND
     1     1     2 ar  
     2     1     8 ar  
     3     1    10 1   
     4     2     3 ar  
     5     3     4 1   
     6     3     5 ar  
     7     4    11 1   
     8     4    12 1   
     9     5     6 ar  
    10     6     7 1   
    11     6     8 ar  
    12     7    13 1   
    13     7    14 1   
    14     8     9 1   
    15     9    15 1   
    16     9    16 1   
    17    10    17 1   
@<TRIPOS>SUBSTRUCTURE
     1 0FU         1 TEMP              0 ****  ****    0 ROOT
