@<TRIPOS>MOLECULE
0FW
   51    54     1     0     0
SMALL
No Charge or Current Charge


@<TRIPOS>ATOM
      1 OAA         -6.4930    -3.7420     1.4440 o          1 0FW      -0.731000
      2 OAB         -7.3350    -1.9930    -1.7480 o          1 0FW      -0.729500
      3 OAC          0.3480    -0.0950    -0.6960 o          1 0FW      -0.510100
      4 OAD         -4.3890    -4.1050     1.7310 o          1 0FW      -0.731000
      5 OAE         -5.7450    -3.4450    -1.6850 o          1 0FW      -0.729500
      6 CAF          9.7050    -0.6760    -0.0530 ca         1 0FW      -0.119000
      7 CAG          8.7990    -1.6950     0.2810 ca         1 0FW      -0.115000
      8 CAH          9.2260     0.5880    -0.4340 ca         1 0FW      -0.115000
      9 CAI         -1.9150     4.6930     0.5050 ca         1 0FW      -0.067000
     10 CAJ         -0.6810     4.0300     0.4120 ca         1 0FW      -0.244000
     11 CAK         -3.1040     3.9880     0.2640 ca         1 0FW      -0.198000
     12 CAL          7.4150    -1.4510     0.2340 ca         1 0FW      -0.100000
     13 CAM          7.8420     0.8310    -0.4800 ca         1 0FW      -0.100000
     14 CAN         -3.9900     0.1800     1.3240 ca         1 0FW      -0.179000
     15 CAO          3.1380    -0.6910    -0.6350 ca         1 0FW      -0.073000
     16 CAP          3.5140     1.5920     0.1010 ca         1 0FW      -0.073000
     17 CAQ          4.5210    -0.9330    -0.5870 ca         1 0FW      -0.112500
     18 CAR          4.8970     1.3430     0.1450 ca         1 0FW      -0.112500
     19 CAS         -4.2570    -1.1430     1.7120 ca         1 0FW      -0.110000
     20 CAT         -1.8170     1.9650    -0.1660 ca         1 0FW      -0.198000
     21 CAU         -5.2260    -0.1800    -0.7380 ca         1 0FW      -0.106000
     22 CAX         -5.3190    -3.4060     1.3500 c          1 0FW       0.734600
     23 CAZ          1.1090     0.8020    -0.3540 c          1 0FW       0.600700
     24 CBA         -0.6150     2.6660     0.0730 ca         1 0FW       0.006000
     25 CBB         -3.0570     2.6240    -0.0580 ca         1 0FW       0.204100
     26 CBC         -4.4700     0.6610     0.0930 ca         1 0FW      -0.003900
     27 CBD          2.6100     0.5750    -0.2920 ca         1 0FW      -0.131600
     28 CBE          6.9070    -0.1820    -0.1470 cp         1 0FW      -0.021000
     29 CBF          5.4320     0.0780    -0.1970 cp         1 0FW      -0.038000
     30 CBG         -5.0120    -2.0010     0.8800 ca         1 0FW      -0.081600
     31 CBH         -5.4950    -1.5150    -0.3630 ca         1 0FW      -0.091600
     32 HAF         10.7750    -0.8650    -0.0170 ha         1 0FW       0.103000
     33 HAG          9.1680    -2.6740     0.5790 ha         1 0FW       0.106500
     34 HAH          9.9250     1.3780    -0.6960 ha         1 0FW       0.106500
     35 HAI         -1.9510     5.7490     0.7610 ha         1 0FW       0.087000
     36 HAJ          0.2350     4.5870     0.6010 ha         1 0FW       0.085000
     37 HAK         -4.0620     4.4950     0.3320 ha         1 0FW       0.117000
     38 HAL          6.7320    -2.2500     0.5090 ha         1 0FW       0.118000
     39 HAM          7.4920     1.8130    -0.7900 ha         1 0FW       0.118000
     40 HAN         -3.4200     0.8280     1.9860 ha         1 0FW       0.073000
     41 HAO          2.4750    -1.4970    -0.9440 ha         1 0FW       0.133000
     42 HAP          3.1660     2.5840     0.3790 ha         1 0FW       0.133000
     43 HAQ          4.8890    -1.9150    -0.8710 ha         1 0FW       0.110500
     44 HAR          5.5610     2.1430     0.4640 ha         1 0FW       0.110500
     45 HAS         -3.8890    -1.5050     2.6690 ha         1 0FW       0.101000
     46 HAT         -1.8160     0.9150    -0.4330 ha         1 0FW       0.187000
     47 HAU         -5.5950     0.1990    -1.6880 ha         1 0FW       0.110000
     48 HNAV         1.4210     2.7130     0.2450 hn         1 0FW       0.134000
     49 CAY         -6.2700    -2.4070    -1.3070 c          1 0FW       0.737600
     50 OAW         -4.2390     1.9590    -0.3040 os         1 0FW      -0.247200
     51 NAV          0.6760     2.0770    -0.0040 ns         1 0FW      -0.150000
@<TRIPOS>BOND
     1     1    22 1   
     2     2    49 1   
     3     3    23 2   
     4     4    22 1   
     5     5    49 1   
     6     6     7 ar  
     7     6     8 ar  
     8     6    32 1   
     9     7    12 ar  
    10     7    33 1   
    11     8    13 ar  
    12     8    34 1   
    13     9    10 ar  
    14     9    11 ar  
    15     9    35 1   
    16    10    24 ar  
    17    10    36 1   
    18    11    25 ar  
    19    11    37 1   
    20    12    28 ar  
    21    12    38 1   
    22    13    28 ar  
    23    13    39 1   
    24    14    19 ar  
    25    14    26 ar  
    26    14    40 1   
    27    15    17 ar  
    28    15    27 ar  
    29    15    41 1   
    30    16    18 ar  
    31    16    27 ar  
    32    16    42 1   
    33    17    29 ar  
    34    17    43 1   
    35    18    29 ar  
    36    18    44 1   
    37    19    30 ar  
    38    19    45 1   
    39    20    24 ar  
    40    20    25 ar  
    41    20    46 1   
    42    21    26 ar  
    43    21    31 ar  
    44    21    47 1   
    45    22    30 1   
    46    23    27 1   
    47    23    51 1   
    48    24    51 1   
    49    25    50 1   
    50    26    50 1   
    51    28    29 1   
    52    30    31 ar  
    53    31    49 1   
    54    48    51 1   
@<TRIPOS>SUBSTRUCTURE
     1 0FW         1 TEMP              0 ****  ****    0 ROOT
