@<TRIPOS>MOLECULE
0FW
   51    54     1     0     0
SMALL
bcc


@<TRIPOS>ATOM
      1 OAA         -5.7620    -4.0190     0.8590 o          1 0FW      -0.836300
      2 OAB         -6.3850    -1.9100    -2.0690 o          1 0FW      -0.834800
      3 OAC          0.1350    -0.0470    -0.2140 o          1 0FW      -0.510100
      4 OAD         -3.6990    -4.0730     1.7350 o          1 0FW      -0.836300
      5 OAE         -4.6390    -3.2670    -1.7800 o          1 0FW      -0.834800
      6 CAF          9.3190    -0.8730    -0.0410 ca         1 0FW      -0.137000
      7 CAG          8.3800    -1.8890     0.0750 ca         1 0FW      -0.133000
      8 CAH          8.8910     0.4370    -0.2050 ca         1 0FW      -0.133000
      9 CAI         -1.9630     4.8140    -0.0160 ca         1 0FW      -0.085000
     10 CAJ         -0.7480     4.1650    -0.1450 ca         1 0FW      -0.262000
     11 CAK         -3.1370     4.1030     0.1530 ca         1 0FW      -0.216000
     12 CAL          7.0250    -1.5970     0.0320 ca         1 0FW      -0.118000
     13 CAM          7.5370     0.7290    -0.2510 ca         1 0FW      -0.118000
     14 CAN         -3.8930     0.1650     1.7320 ca         1 0FW      -0.197000
     15 CAO          2.8760    -0.5480    -0.7770 ca         1 0FW      -0.091000
     16 CAP          3.3030     1.4990     0.3910 ca         1 0FW      -0.091000
     17 CAQ          4.2270    -0.8350    -0.7650 ca         1 0FW      -0.130500
     18 CAR          4.6540     1.2010     0.4170 ca         1 0FW      -0.130500
     19 CAS         -3.9950    -1.2090     1.9010 ca         1 0FW      -0.128000
     20 CAT         -1.8760     2.0360     0.0380 ca         1 0FW      -0.216000
     21 CAU         -4.8030    -0.0800    -0.4820 ca         1 0FW      -0.124000
     22 CAX         -4.6620    -3.5160     1.1680 c          1 0FW       0.945200
     23 CAZ          0.9240     0.8760    -0.2270 c          1 0FW       0.667700
     24 CBA         -0.7020     2.7710    -0.1140 ca         1 0FW       0.098600
     25 CBB         -3.0820     2.7140     0.1760 ca         1 0FW       0.204100
     26 CBC         -4.3030     0.7190     0.5280 ca         1 0FW      -0.003900
     27 CBD          2.3970     0.6310    -0.2120 ca         1 0FW      -0.131600
     28 CBE          6.5830    -0.2830    -0.1320 cp         1 0FW      -0.021000
     29 CBF          5.1420     0.0330    -0.1640 cp         1 0FW      -0.038000
     30 CBG         -4.5060    -2.0300     0.8980 ca         1 0FW      -0.081600
     31 CBH         -4.8960    -1.4550    -0.3100 ca         1 0FW      -0.091600
     32 HAF         10.3770    -1.0990     0.0030 ha         1 0FW       0.121000
     33 HAG          8.7030    -2.9140     0.2080 ha         1 0FW       0.124500
     34 HAH          9.6150     1.2360    -0.2930 ha         1 0FW       0.124500
     35 HAI         -1.9930     5.8950    -0.0430 ha         1 0FW       0.105000
     36 HAJ          0.1610     4.7420    -0.2660 ha         1 0FW       0.103000
     37 HAK         -4.0860     4.6110     0.2570 ha         1 0FW       0.135000
     38 HAL          6.3060    -2.3980     0.1470 ha         1 0FW       0.136000
     39 HAM          7.2180     1.7530    -0.3970 ha         1 0FW       0.136000
     40 HAN         -3.5060     0.7920     2.5260 ha         1 0FW       0.091000
     41 HAO          2.1870    -1.2410    -1.2420 ha         1 0FW       0.151000
     42 HAP          2.9670     2.3980     0.8890 ha         1 0FW       0.151000
     43 HAQ          4.5770    -1.7380    -1.2450 ha         1 0FW       0.128500
     44 HAR          5.3290     1.8750     0.9280 ha         1 0FW       0.128500
     45 HAS         -3.6790    -1.6460     2.8390 ha         1 0FW       0.119000
     46 HAT         -1.8460     0.9570     0.0510 ha         1 0FW       0.205000
     47 HAU         -5.1160     0.3750    -1.4140 ha         1 0FW       0.128000
     48 HNAV         1.3120     2.8540    -0.3640 hn         1 0FW       0.300500
     49 CAY         -5.3560    -2.2930    -1.4890 c          1 0FW       0.948200
     50 OAW         -4.2670     2.0800     0.3240 os         1 0FW      -0.247200
     51 NAV          0.5670     2.1890    -0.2330 ns         1 0FW      -0.476100
@<TRIPOS>BOND
     1     1    22 1   
     2     2    49 1   
     3     3    23 2   
     4     4    22 1   
     5     5    49 1   
     6     6     7 ar  
     7     6     8 ar  
     8     6    32 1   
     9     7    12 ar  
    10     7    33 1   
    11     8    13 ar  
    12     8    34 1   
    13     9    10 ar  
    14     9    11 ar  
    15     9    35 1   
    16    10    24 ar  
    17    10    36 1   
    18    11    25 ar  
    19    11    37 1   
    20    12    28 ar  
    21    12    38 1   
    22    13    28 ar  
    23    13    39 1   
    24    14    19 ar  
    25    14    26 ar  
    26    14    40 1   
    27    15    17 ar  
    28    15    27 ar  
    29    15    41 1   
    30    16    18 ar  
    31    16    27 ar  
    32    16    42 1   
    33    17    29 ar  
    34    17    43 1   
    35    18    29 ar  
    36    18    44 1   
    37    19    30 ar  
    38    19    45 1   
    39    20    24 ar  
    40    20    25 ar  
    41    20    46 1   
    42    21    26 ar  
    43    21    31 ar  
    44    21    47 1   
    45    22    30 1   
    46    23    27 1   
    47    23    51 1   
    48    24    51 1   
    49    25    50 1   
    50    26    50 1   
    51    28    29 1   
    52    30    31 ar  
    53    31    49 1   
    54    48    51 1   
@<TRIPOS>SUBSTRUCTURE
     1 0FW         1 TEMP              0 ****  ****    0 ROOT
