@<TRIPOS>MOLECULE
0FX
   60    62     1     0     0
SMALL
bcc


@<TRIPOS>ATOM
      1 O4P         -3.7080    -1.9700    -1.4110 o          1 0FX      -0.849000
      2 P2          -3.1740    -1.3110    -0.1780 p5         1 0FX       1.464800
      3 O3P         -3.6840    -1.6780     1.1780 o          1 0FX      -0.849000
      4 O1G         -3.2320     0.3300    -0.3810 os         1 0FX      -0.558200
      5 C1G         -4.3390     0.9050    -1.0090 c6         1 0FX       0.374900
      6 C2G         -4.0960     2.4080    -1.1410 c6         1 0FX       0.085100
      7 O2G         -2.8720     2.7000    -1.7710 oh         1 0FX      -0.582800
      8 C3G         -4.0960     3.0850     0.2240 c6         1 0FX       0.157100
      9 O3G         -4.0040     4.4830     0.0860 oh         1 0FX      -0.609800
     10 C4G         -5.3820     2.7440     0.9730 c6         1 0FX       0.138500
     11 N4A         -5.3670     3.3560     2.2890 n8         1 0FX      -0.884800
     12 C5G         -5.5720     1.2190     1.0030 c6         1 0FX       0.109100
     13 C6G         -6.9070     0.8040     1.5880 c3         1 0FX      -0.081100
     14 O5G         -5.5260     0.6750    -0.3130 os         1 0FX      -0.438600
     15 OPP         -1.5340    -1.3820    -0.1940 os         1 0FX      -0.691800
     16 P           -0.6340    -2.2410     0.8800 p5         1 0FX       1.465800
     17 O1P         -0.4830    -1.4980     2.1690 o          1 0FX      -0.851500
     18 O2P         -1.0540    -3.6770     0.8670 o          1 0FX      -0.851500
     19 O5           0.7490    -2.0680    -0.0020 os         1 0FX      -0.546200
     20 C5           1.9740    -2.2900     0.6630 c3         1 0FX       0.210400
     21 C4           3.0860    -2.3750    -0.3520 c5         1 0FX       0.143100
     22 O4           3.2310    -1.1320    -1.0160 os         1 0FX      -0.355600
     23 C3           4.4430    -2.6870     0.2810 c5         1 0FX       0.103100
     24 O3           4.6100    -4.0820     0.3300 oh         1 0FX      -0.579800
     25 C2           5.4190    -1.9550    -0.6410 c5         1 0FX      -0.154400
     26 C1           4.5670    -0.9020    -1.3580 c5         1 0FX       0.324500
     27 N11          4.8990     0.4930    -1.0770 n          1 0FX      -0.377000
     28 C61          5.1590     1.3400    -2.1240 cc         1 0FX       0.073600
     29 C51          5.4600     2.6430    -1.9910 cd         1 0FX      -0.298400
     30 C5A          5.7440     3.5360    -3.1530 c3         1 0FX      -0.007900
     31 C21          4.8950     0.9550     0.2190 c          1 0FX       0.830500
     32 O21          4.6490     0.2560     1.1790 o          1 0FX      -0.605500
     33 N31          5.2050     2.2840     0.3480 ns         1 0FX      -0.603500
     34 C41          5.5000     3.1940    -0.6520 c          1 0FX       0.739700
     35 O41          5.7620     4.3510    -0.3780 o          1 0FX      -0.637500
     36 H2          -4.4930     0.4600    -1.9990 h2         1 0FX       0.072700
     37 H3          -4.9400     2.8150    -1.7170 h1         1 0FX       0.007700
     38 H4          -2.9700     2.5630    -2.7180 ho         1 0FX       0.393000
     39 H5          -3.2440     2.6980     0.8060 h1         1 0FX       0.083700
     40 H6          -3.2380     4.6670    -0.4670 ho         1 0FX       0.402000
     41 H7          -6.2230     3.1780     0.4160 h1         1 0FX       0.047700
     42 H8          -6.2650     3.2340     2.7370 hn         1 0FX       0.334300
     43 H9          -4.6900     2.8880     2.8820 hn         1 0FX       0.334300
     44 H11         -4.7730     0.7770     1.6120 h1         1 0FX       0.099700
     45 H12         -7.7390     1.2680     1.0560 hc         1 0FX       0.030700
     46 H13         -7.0240    -0.2790     1.5370 hc         1 0FX       0.030700
     47 H14         -6.9790     1.0830     2.6380 hc         1 0FX       0.030700
     48 H16          2.1890    -1.4840     1.3730 h1         1 0FX       0.028700
     49 H17          1.9680    -3.2320     1.2260 h1         1 0FX       0.028700
     50 H18          2.8580    -3.1640    -1.0840 h1         1 0FX       0.070700
     51 H19          4.4900    -2.2590     1.2860 h1         1 0FX       0.070700
     52 H20          5.3410    -4.2770     0.9230 ho         1 0FX       0.389000
     53 H21          6.2750    -1.5300    -0.1190 hc         1 0FX       0.051200
     54 H22          5.8060    -2.6540    -1.3830 hc         1 0FX       0.051200
     55 H23          4.7020    -0.9950    -2.4380 h2         1 0FX       0.043700
     56 H24          5.1080     0.8800    -3.1020 h4         1 0FX       0.149000
     57 H25          5.0270     4.3560    -3.2110 hc         1 0FX       0.036033
     58 H26          6.7380     3.9810    -3.0810 hc         1 0FX       0.036033
     59 H27          5.6940     2.9820    -4.0890 hc         1 0FX       0.036033
     60 H28          5.2180     2.6320     1.2990 hn         1 0FX       0.337500
@<TRIPOS>BOND
     1     1     2 1   
     2     2     3 1   
     3     2     4 1   
     4     2    15 1   
     5     4     5 1   
     6     5     6 1   
     7     5    14 1   
     8     5    36 1   
     9     6     7 1   
    10     6     8 1   
    11     6    37 1   
    12     7    38 1   
    13     8     9 1   
    14     8    10 1   
    15     8    39 1   
    16     9    40 1   
    17    10    11 1   
    18    10    12 1   
    19    10    41 1   
    20    11    42 1   
    21    11    43 1   
    22    12    13 1   
    23    12    14 1   
    24    12    44 1   
    25    13    45 1   
    26    13    46 1   
    27    13    47 1   
    28    15    16 1   
    29    16    17 1   
    30    16    18 1   
    31    16    19 1   
    32    19    20 1   
    33    20    21 1   
    34    20    48 1   
    35    20    49 1   
    36    21    22 1   
    37    21    23 1   
    38    21    50 1   
    39    22    26 1   
    40    23    24 1   
    41    23    25 1   
    42    23    51 1   
    43    24    52 1   
    44    25    26 1   
    45    25    53 1   
    46    25    54 1   
    47    26    27 1   
    48    26    55 1   
    49    27    28 1   
    50    27    31 1   
    51    28    29 2   
    52    28    56 1   
    53    29    30 1   
    54    29    34 1   
    55    30    57 1   
    56    30    58 1   
    57    30    59 1   
    58    31    32 2   
    59    31    33 1   
    60    33    34 1   
    61    33    60 1   
    62    34    35 2   
@<TRIPOS>SUBSTRUCTURE
     1 0FX         1 TEMP              0 ****  ****    0 ROOT
