@<TRIPOS>MOLECULE
0FX
   60    62     1     0     0
SMALL
No Charge or Current Charge


@<TRIPOS>ATOM
      1 O4P         -3.7200    -2.2830     1.4070 o          1 0FX      -0.849000
      2 P2          -2.3370    -1.7260     1.4720 p5         1 0FX       1.464800
      3 O3P         -1.7560    -1.7840     2.8470 o          1 0FX      -0.849000
      4 O1G         -2.3370    -0.1910     0.9890 os         1 0FX      -0.581400
      5 C1G         -3.1190     0.1820    -0.1500 c6         1 0FX       0.421300
      6 C2G         -2.2910     0.2720    -1.4920 c6         1 0FX       0.108300
      7 O2G         -1.6090    -0.9480    -1.8680 oh         1 0FX      -0.705000
      8 C3G         -1.2690     1.4460    -1.4100 c6         1 0FX       0.180300
      9 O3G         -0.5690     1.5260    -2.6690 oh         1 0FX      -0.672000
     10 C4G         -2.0060     2.7860    -1.0510 c6         1 0FX       0.138500
     11 N4A         -1.0880     3.9700    -0.9770 n8         1 0FX      -0.995200
     12 C5G         -2.8130     2.5730     0.2760 c6         1 0FX       0.132300
     13 C6G         -3.6800     3.7990     0.6730 c3         1 0FX      -0.081100
     14 O5G         -3.7300     1.4620     0.1300 os         1 0FX      -0.485000
     15 OPP         -1.3570    -2.2680     0.3620 os         1 0FX      -0.691800
     16 P           -1.2880    -3.8460     0.3560 p5         1 0FX       1.465800
     17 O1P         -1.1520    -4.5100     1.6870 o          1 0FX      -0.851500
     18 O2P         -2.3800    -4.4460    -0.4690 o          1 0FX      -0.851500
     19 O5           0.1000    -3.9680    -0.4530 os         1 0FX      -0.569400
     20 C5           1.3350    -3.6190     0.1950 c3         1 0FX       0.233600
     21 C4           2.0370    -2.4960    -0.6160 c5         1 0FX       0.166300
     22 O4           1.3740    -1.2260    -0.4440 os         1 0FX      -0.402000
     23 C3           3.4810    -2.1650    -0.1390 c5         1 0FX       0.126300
     24 O3           4.4520    -3.1530    -0.5110 oh         1 0FX      -0.702000
     25 C2           3.7150    -0.8200    -0.8820 c5         1 0FX      -0.154400
     26 C1           2.2700    -0.2250    -0.9570 c5         1 0FX       0.347700
     27 N11          2.2530     1.0460    -0.1810 n          1 0FX      -0.310000
     28 C61          2.3680     2.2480    -0.8870 cc         1 0FX       0.023600
     29 C51          2.3180     3.4570    -0.2250 cd         1 0FX      -0.298400
     30 C5A          2.4390     4.7950    -0.9250 c3         1 0FX      -0.007900
     31 C21          2.0960     1.0370     1.2260 c          1 0FX       0.621000
     32 O21          2.0440     0.0330     1.9180 o          1 0FX      -0.530000
     33 N31          2.0360     2.2610     1.8180 ns         1 0FX      -0.469500
     34 C41          2.1320     3.4890     1.2460 c          1 0FX       0.597200
     35 O41          2.0620     4.5060     1.9170 o          1 0FX      -0.562000
     36 H2          -3.9300    -0.5480    -0.3020 h2         1 0FX       0.072700
     37 H3          -3.0090     0.5200    -2.2880 h1         1 0FX       0.007700
     38 H4          -1.3580    -1.4140    -1.0190 ho         1 0FX       0.492000
     39 H5          -0.5570     1.2180    -0.6000 h1         1 0FX       0.083700
     40 H6          -0.5990     0.6010    -3.0080 ho         1 0FX       0.441000
     41 H7          -2.7340     3.0070    -1.8490 h1         1 0FX       0.047700
     42 H8          -1.5720     4.7430    -0.5050 hn         1 0FX       0.389500
     43 H9          -0.2890     3.7540    -0.3660 hn         1 0FX       0.389500
     44 H11         -2.1180     2.3610     1.1050 h1         1 0FX       0.099700
     45 H12         -4.3530     4.0940    -0.1420 hc         1 0FX       0.030700
     46 H13         -4.2960     3.5730     1.5530 hc         1 0FX       0.030700
     47 H14         -3.0590     4.6670     0.9280 hc         1 0FX       0.030700
     48 H16          1.1770    -3.2680     1.2250 h1         1 0FX       0.028700
     49 H17          1.9960    -4.4970     0.2360 h1         1 0FX       0.028700
     50 H18          2.0310    -2.7670    -1.6830 h1         1 0FX       0.070700
     51 H19          3.4850    -2.0110     0.9520 h1         1 0FX       0.070700
     52 H20          5.3330    -2.8220    -0.2180 ho         1 0FX       0.488000
     53 H21          4.4290    -0.1760    -0.3560 hc         1 0FX       0.051200
     54 H22          4.1090    -0.9780    -1.8950 hc         1 0FX       0.051200
     55 H23          2.0030     0.0150    -1.9960 h2         1 0FX       0.043700
     56 H24          2.4910     2.1200    -1.9600 h4         1 0FX       0.199000
     57 H25          1.5350     5.4040    -0.7840 hc         1 0FX       0.036033
     58 H26          3.2920     5.3680    -0.5390 hc         1 0FX       0.036033
     59 H27          2.5870     4.6720    -2.0060 hc         1 0FX       0.036033
     60 H28          1.9210     2.2530     2.8200 hn         1 0FX       0.337500
@<TRIPOS>BOND
     1     1     2 1   
     2     2     3 1   
     3     2     4 1   
     4     2    15 1   
     5     4     5 1   
     6     5     6 1   
     7     5    14 1   
     8     5    36 1   
     9     6     7 1   
    10     6     8 1   
    11     6    37 1   
    12     7    38 1   
    13     8     9 1   
    14     8    10 1   
    15     8    39 1   
    16     9    40 1   
    17    10    11 1   
    18    10    12 1   
    19    10    41 1   
    20    11    42 1   
    21    11    43 1   
    22    12    13 1   
    23    12    14 1   
    24    12    44 1   
    25    13    45 1   
    26    13    46 1   
    27    13    47 1   
    28    15    16 1   
    29    16    17 1   
    30    16    18 1   
    31    16    19 1   
    32    19    20 1   
    33    20    21 1   
    34    20    48 1   
    35    20    49 1   
    36    21    22 1   
    37    21    23 1   
    38    21    50 1   
    39    22    26 1   
    40    23    24 1   
    41    23    25 1   
    42    23    51 1   
    43    24    52 1   
    44    25    26 1   
    45    25    53 1   
    46    25    54 1   
    47    26    27 1   
    48    26    55 1   
    49    27    28 1   
    50    27    31 1   
    51    28    29 2   
    52    28    56 1   
    53    29    30 1   
    54    29    34 1   
    55    30    57 1   
    56    30    58 1   
    57    30    59 1   
    58    31    32 2   
    59    31    33 1   
    60    33    34 1   
    61    33    60 1   
    62    34    35 2   
@<TRIPOS>SUBSTRUCTURE
     1 0FX         1 TEMP              0 ****  ****    0 ROOT
