@<TRIPOS>MOLECULE
0FY
   72    77     1     0     0
SMALL
bcc


@<TRIPOS>ATOM
      1 C34         -8.4210     2.1650     0.5390 ca         1 0FY      -0.179000
      2 C14          5.3210    -1.0760     1.5260 cc         1 0FY      -0.295300
      3 C28         -3.1620    -1.4120    -2.0320 cc         1 0FY       0.355200
      4 C25         -4.0220    -1.8810    -0.0590 cd         1 0FY      -0.054300
      5 C35         -9.2780     3.1580     0.9430 ca         1 0FY       0.013700
      6 C37        -11.1470     1.7880     0.6180 ca         1 0FY      -0.025300
      7 C8          -1.0790    -2.8820     0.7640 cd         1 0FY      -0.078100
      8 C10         -2.8110    -1.7280    -0.6990 cc         1 0FY      -0.286100
      9 C33         -8.9360     0.9210     0.1550 ca         1 0FY       0.166600
     10 C38        -10.3320     0.7750     0.2120 ca         1 0FY       0.064900
     11 C9          -1.5100    -1.9230    -0.1050 cc         1 0FY       0.026700
     12 C15          6.3890    -0.2310     1.1720 cc         1 0FY       0.345600
     13 C13          4.1820    -0.6730     0.8750 cd         1 0FY       0.126500
     14 C4           0.6290    -1.5580     0.3890 ca         1 0FY      -0.153800
     15 C6          -0.3180     0.0300    -1.0980 ca         1 0FY      -0.228600
     16 C3           1.8630    -0.8650     0.2940 ca         1 0FY       0.720200
     17 C1           0.8860     0.6560    -1.1470 ca         1 0FY       0.496600
     18 C30         -6.8320    -0.2480    -0.3520 c          1 0FY       0.666100
     19 C21          9.6940    -0.8080    -1.5790 c6         1 0FY      -0.101400
     20 C22         11.0980    -0.4890    -1.0830 c6         1 0FY      -0.086400
     21 C20          8.7740    -1.1610    -0.4280 c6         1 0FY       0.130800
     22 C24         10.1230     0.2320     1.1030 c6         1 0FY       0.132800
     23 C23         11.0770     0.6120    -0.0220 c6         1 0FY      -0.083700
     24 C11          1.0990     1.8880    -1.9600 c3         1 0FY      -0.156400
     25 C40         10.7690     1.9890    -0.6060 c3         1 0FY      -0.108100
     26 C29         -6.3830    -1.6380    -0.7700 c3         1 0FY      -0.033700
     27 N27         -4.4650    -1.3770    -2.1800 nd         1 0FY      -0.467800
     28 N16          6.1250     0.7340     0.3320 nd         1 0FY      -0.590100
     29 N2           1.9560     0.1890    -0.4580 nb         1 0FY      -0.729000
     30 N26         -4.9690    -1.6780    -0.9840 na         1 0FY       0.128400
     31 N5          -0.4200    -1.0990    -0.3240 na         1 0FY       0.130700
     32 N36        -10.5950     2.9540     0.9730 na         1 0FY      -0.081100
     33 N7           0.2220    -2.6390     1.0580 na         1 0FY      -0.095400
     34 N32         -8.2020    -0.1500    -0.2600 ns         1 0FY      -0.452100
     35 N12          2.9600    -1.2830     0.9710 nu         1 0FY      -0.691300
     36 N19          8.7490    -0.0600     0.5870 nx         1 0FY      -0.692400
     37 O31         -6.0670     0.6480    -0.1080 o          1 0FY      -0.506100
     38 F39        -10.8680    -0.3880    -0.1380 f          1 0FY      -0.082900
     39 S17          4.5320     0.7020    -0.1100 ss         1 0FY       0.396200
     40 H34         -7.3660     2.3710     0.5300 ha         1 0FY       0.217000
     41 H14          5.3840    -1.9190     2.1970 ha         1 0FY       0.185000
     42 H28         -2.5100    -1.2380    -2.8750 h4         1 0FY       0.062100
     43 H25         -4.2550    -2.1180     0.9670 h4         1 0FY       0.192000
     44 H35         -8.9300     4.1310     1.2500 h4         1 0FY       0.216000
     45 H37        -12.2220     1.6950     0.6690 h4         1 0FY       0.233000
     46 H8          -1.6110    -3.7200     1.1790 h4         1 0FY       0.233000
     47 H6          -1.2010     0.3650    -1.6140 h4         1 0FY       0.218000
     48 H211         9.2720     0.0270    -2.1430 hc         1 0FY       0.084200
     49 H212         9.7080    -1.6600    -2.2600 hc         1 0FY       0.084200
     50 H222        11.5410    -1.3940    -0.6580 hc         1 0FY       0.081700
     51 H221        11.7330    -0.1880    -1.9180 hc         1 0FY       0.081700
     52 H201         7.7540    -1.3280    -0.7660 hx         1 0FY       0.088700
     53 H202         9.1160    -2.0530     0.0970 hx         1 0FY       0.088700
     54 H242        10.4580    -0.6690     1.6170 hx         1 0FY       0.095200
     55 H241        10.0260     1.0320     1.8360 hx         1 0FY       0.095200
     56 H23         12.0630     0.6630     0.4460 hc         1 0FY       0.106700
     57 H111         1.8730     1.7160    -2.7080 hc         1 0FY       0.086033
     58 H113         0.1880     2.1950    -2.4680 hc         1 0FY       0.086033
     59 H112         1.4350     2.7070    -1.3230 hc         1 0FY       0.086033
     60 H402         9.8060     2.0370    -1.1190 hc         1 0FY       0.055700
     61 H403        10.7660     2.7550     0.1710 hc         1 0FY       0.055700
     62 H401        11.5260     2.2620    -1.3410 hc         1 0FY       0.055700
     63 H181         7.9680     0.3710     2.4820 hx         1 0FY       0.111700
     64 H182         8.0040    -1.3480     2.0730 hx         1 0FY       0.111700
     65 H292        -6.6550    -2.3520     0.0100 h1         1 0FY       0.116700
     66 H291        -6.8900    -1.9460    -1.6850 h1         1 0FY       0.116700
     67 H32         -8.7240    -0.9790    -0.5140 hn         1 0FY       0.363500
     68 H12          2.9090    -2.0940     1.5710 hn         1 0FY       0.468800
     69 H36        -11.2050     3.7040     1.2750 hn         1 0FY       0.357700
     70 H7           0.7850    -3.2050     1.6780 hn         1 0FY       0.359700
     71 H19          8.3890     0.7830     0.1240 hn         1 0FY       0.467800
     72 C18          7.7910    -0.3530     1.6870 c3         1 0FY       0.098500
@<TRIPOS>BOND
     1     1     5 ar  
     2     1     9 ar  
     3     1    40 1   
     4     2    12 1   
     5     2    13 2   
     6     2    41 1   
     7     3     8 1   
     8     3    27 2   
     9     3    42 1   
    10     4     8 2   
    11     4    30 1   
    12     4    43 1   
    13     5    32 2   
    14     5    44 1   
    15     6    10 ar  
    16     6    32 1   
    17     6    45 1   
    18     7    11 2   
    19     7    33 1   
    20     7    46 1   
    21     8    11 1   
    22     9    10 ar  
    23     9    34 1   
    24    10    38 1   
    25    11    31 1   
    26    12    28 2   
    27    12    72 1   
    28    13    35 1   
    29    13    39 1   
    30    14    16 ar  
    31    14    31 2   
    32    14    33 1   
    33    15    17 ar  
    34    15    31 1   
    35    15    47 1   
    36    16    29 ar  
    37    16    35 1   
    38    17    24 1   
    39    17    29 ar  
    40    18    26 1   
    41    18    34 1   
    42    18    37 2   
    43    19    20 1   
    44    19    21 1   
    45    19    48 1   
    46    19    49 1   
    47    20    23 1   
    48    20    50 1   
    49    20    51 1   
    50    21    36 1   
    51    21    52 1   
    52    21    53 1   
    53    22    23 1   
    54    22    36 1   
    55    22    54 1   
    56    22    55 1   
    57    23    25 1   
    58    23    56 1   
    59    24    57 1   
    60    24    58 1   
    61    24    59 1   
    62    25    60 1   
    63    25    61 1   
    64    25    62 1   
    65    26    30 1   
    66    26    65 1   
    67    26    66 1   
    68    27    30 1   
    69    28    39 1   
    70    32    69 1   
    71    33    70 1   
    72    34    67 1   
    73    35    68 1   
    74    36    71 1   
    75    36    72 1   
    76    63    72 1   
    77    64    72 1   
@<TRIPOS>SUBSTRUCTURE
     1 0FY         1 TEMP              0 ****  ****    0 ROOT
