@<TRIPOS>MOLECULE
0FY
   72    77     1     0     0
SMALL
No Charge or Current Charge


@<TRIPOS>ATOM
      1 C34         -9.4100     0.9180     1.4060 ca         1 0FY      -0.161000
      2 C14          5.2060    -0.3380     1.1010 cc         1 0FY      -0.212000
      3 C28         -3.8080    -1.0340    -1.3610 cc         1 0FY       0.289900
      4 C25         -4.1280    -2.1380     0.5370 cd         1 0FY      -0.087000
      5 C35        -10.2020     2.0750     1.5580 ca         1 0FY       0.031700
      6 C37         -9.6580     2.7700    -0.6700 ca         1 0FY      -0.058000
      7 C8          -1.2620    -1.9780     1.3650 cd         1 0FY      -0.128100
      8 C10         -3.1710    -1.4880    -0.1880 cc         1 0FY      -0.220800
      9 C33         -8.7230     0.6800     0.1950 ca         1 0FY       0.074000
     10 C38         -8.8630     1.6240    -0.8430 ca         1 0FY       0.100000
     11 C9          -1.7920    -1.3720     0.2350 cc         1 0FY       0.026700
     12 C15          6.3780     0.3230     0.6610 cc         1 0FY       0.280300
     13 C13          4.1310    -0.0020     0.3430 cd         1 0FY       0.120000
     14 C4           0.4370    -0.9120     0.3410 ca         1 0FY      -0.088500
     15 C6          -0.7260     0.1830    -1.4040 ca         1 0FY      -0.196000
     16 C3           1.6370    -0.3180    -0.0870 ca         1 0FY       0.654900
     17 C1           0.5020     0.7480    -1.7940 ca         1 0FY       0.431300
     18 C30         -7.4860    -1.4930     0.7940 c          1 0FY       0.599100
     19 C21         10.0740    -1.2330    -1.4600 c6         1 0FY      -0.101400
     20 C22         11.4300    -1.0490    -0.7320 c6         1 0FY      -0.086400
     21 C20          8.9030    -1.2530    -0.4560 c6         1 0FY       0.102600
     22 C24         10.2460     0.1550     1.1700 c6         1 0FY       0.104600
     23 C23         11.4360     0.2080     0.1830 c6         1 0FY      -0.083700
     24 C11          0.5790     1.7270    -2.9440 c3         1 0FY      -0.156400
     25 C40         11.4540     1.5370    -0.6250 c3         1 0FY      -0.108100
     26 C29         -6.6190    -2.5430     0.1090 c3         1 0FY      -0.004400
     27 N27         -5.0890    -1.3350    -1.4170 nd         1 0FY      -0.467800
     28 N16          6.3010     1.1410    -0.3760 nd         1 0FY      -0.590100
     29 N2           1.6690     0.4950    -1.1550 nb         1 0FY      -0.729000
     30 N26         -5.2910    -2.0230    -0.2310 na         1 0FY       0.149800
     31 N5          -0.7210    -0.7150    -0.3430 na         1 0FY       0.181400
     32 N36        -10.3350     3.0160     0.5310 na         1 0FY      -0.080700
     33 N7           0.1210    -1.7140     1.4400 na         1 0FY      -0.145700
     34 N32         -7.9080    -0.4650    -0.0370 ns         1 0FY      -0.126000
     35 N12          2.8530    -0.5040     0.5560 nu         1 0FY      -0.884900
     36 N19          8.9140     0.0070     0.4210 nx         1 0FY      -0.663000
     37 O31         -7.7630    -1.5700     1.9850 o          1 0FY      -0.506100
     38 F39         -8.2290     1.4350    -2.0230 f          1 0FY      -0.118000
     39 S17          4.6930     1.1560    -0.9050 ss         1 0FY       0.541100
     40 H34         -9.3550     0.2240     2.2400 ha         1 0FY       0.199000
     41 H14          5.1940    -1.0240     1.9400 ha         1 0FY       0.167000
     42 H28         -3.3870    -0.5090    -2.2040 h4         1 0FY       0.062100
     43 H25         -4.0960    -2.6480     1.4930 h4         1 0FY       0.174000
     44 H35        -10.7410     2.2710     2.4880 h4         1 0FY       0.198000
     45 H37         -9.7660     3.5020    -1.4720 h4         1 0FY       0.215000
     46 H8          -1.7610    -2.5970     2.1060 h4         1 0FY       0.283000
     47 H6          -1.6540     0.4770    -1.8760 h4         1 0FY       0.200000
     48 H211         9.9200    -0.4300    -2.1930 hc         1 0FY       0.084200
     49 H212        10.0810    -2.1710    -2.0320 hc         1 0FY       0.084200
     50 H222        11.6340    -1.9410    -0.1220 hc         1 0FY       0.081700
     51 H221        12.2460    -0.9900    -1.4650 hc         1 0FY       0.081700
     52 H201         7.9390    -1.3020    -0.9730 hx         1 0FY       0.088700
     53 H202         8.9750    -2.1190     0.2110 hx         1 0FY       0.088700
     54 H242        10.3390    -0.7020     1.8460 hx         1 0FY       0.095200
     55 H241        10.1990     1.0630     1.7810 hx         1 0FY       0.095200
     56 H23         12.3650     0.2010     0.7730 hc         1 0FY       0.106700
     57 H111         1.5210     1.6190    -3.4940 hc         1 0FY       0.086033
     58 H113        -0.2390     1.5700    -3.6550 hc         1 0FY       0.086033
     59 H112         0.5170     2.7580    -2.5780 hc         1 0FY       0.086033
     60 H402        10.5590     1.6610    -1.2440 hc         1 0FY       0.055700
     61 H403        11.5120     2.4030     0.0460 hc         1 0FY       0.055700
     62 H401        12.3250     1.5820    -1.2910 hc         1 0FY       0.055700
     63 H181         7.8580     0.9060     2.0570 hx         1 0FY       0.111700
     64 H182         7.6430    -0.8390     1.9320 hx         1 0FY       0.111700
     65 H292        -6.5150    -3.3990     0.7840 h1         1 0FY       0.116700
     66 H291        -7.1250    -2.8760    -0.8040 h1         1 0FY       0.116700
     67 H32         -7.5580    -0.5310    -0.9850 hn         1 0FY       0.197000
     68 H12          2.7920    -1.1540     1.3350 hn         1 0FY       0.524000
     69 H36        -10.9050     3.8470     0.6550 hn         1 0FY       0.408000
     70 H7           0.7520    -2.0420     2.1680 hn         1 0FY       0.410000
     71 H19          8.8160     0.8260    -0.2230 hn         1 0FY       0.523000
     72 C18          7.6960     0.0860     1.3530 c3         1 0FY       0.070300
@<TRIPOS>BOND
     1     1     5 ar  
     2     1     9 ar  
     3     1    40 1   
     4     2    12 1   
     5     2    13 2   
     6     2    41 1   
     7     3     8 1   
     8     3    27 2   
     9     3    42 1   
    10     4     8 2   
    11     4    30 1   
    12     4    43 1   
    13     5    32 2   
    14     5    44 1   
    15     6    10 ar  
    16     6    32 1   
    17     6    45 1   
    18     7    11 2   
    19     7    33 1   
    20     7    46 1   
    21     8    11 1   
    22     9    10 ar  
    23     9    34 1   
    24    10    38 1   
    25    11    31 1   
    26    12    28 2   
    27    12    72 1   
    28    13    35 1   
    29    13    39 1   
    30    14    16 ar  
    31    14    31 2   
    32    14    33 1   
    33    15    17 ar  
    34    15    31 1   
    35    15    47 1   
    36    16    29 ar  
    37    16    35 1   
    38    17    24 1   
    39    17    29 ar  
    40    18    26 1   
    41    18    34 1   
    42    18    37 2   
    43    19    20 1   
    44    19    21 1   
    45    19    48 1   
    46    19    49 1   
    47    20    23 1   
    48    20    50 1   
    49    20    51 1   
    50    21    36 1   
    51    21    52 1   
    52    21    53 1   
    53    22    23 1   
    54    22    36 1   
    55    22    54 1   
    56    22    55 1   
    57    23    25 1   
    58    23    56 1   
    59    24    57 1   
    60    24    58 1   
    61    24    59 1   
    62    25    60 1   
    63    25    61 1   
    64    25    62 1   
    65    26    30 1   
    66    26    65 1   
    67    26    66 1   
    68    27    30 1   
    69    28    39 1   
    70    32    69 1   
    71    33    70 1   
    72    34    67 1   
    73    35    68 1   
    74    36    71 1   
    75    36    72 1   
    76    63    72 1   
    77    64    72 1   
@<TRIPOS>SUBSTRUCTURE
     1 0FY         1 TEMP              0 ****  ****    0 ROOT
