@<TRIPOS>MOLECULE
0FZ
   38    40     1     0     0
SMALL
abcg2


@<TRIPOS>ATOM
      1 CAB         -6.1550    10.1900     9.7650 c3         1 0FZ       0.148900
      2 OAR         -6.6390     8.9130    10.1880 os         1 0FZ      -0.347100
      3 CAX         -5.8360     8.1380    10.9570 ca         1 0FZ       0.159100
      4 CAM         -4.5610     8.5150    11.3850 ca         1 0FZ      -0.197000
      5 CAW         -6.3480     6.8850    11.3130 ca         1 0FZ      -0.154000
      6 CAL         -5.5950     6.0310    12.0960 ca         1 0FZ      -0.040000
      7 CAG         -4.3180     6.3980    12.5400 ca         1 0FZ      -0.223900
      8 CAT         -3.8050     7.6490    12.1640 ca         1 0FZ      -0.018300
      9 CAO         -2.4250     7.9960    12.6450 c6         1 0FZ      -0.063100
     10 CAN         -1.5710     6.7350    12.6700 c6         1 0FZ       0.100800
     11 NAP         -2.1850     5.6440    13.4270 n2         1 0FZ      -0.570900
     12 CAS         -3.4580     5.5130    13.3490 ce         1 0FZ       0.509500
     13 CAU         -4.0690     4.3890    14.1150 ca         1 0FZ      -0.071900
     14 CAI         -5.2150     4.5800    14.8880 ca         1 0FZ      -0.107000
     15 CAK         -5.7480     3.5360    15.6340 ca         1 0FZ      -0.015000
     16 CAH         -3.4640     3.1280    14.0930 ca         1 0FZ      -0.107000
     17 CAJ         -3.9930     2.0770    14.8220 ca         1 0FZ      -0.015000
     18 CAV         -5.1350     2.2900    15.5920 ca         1 0FZ      -0.270500
     19 SAY         -5.7830     0.9530    16.5590 sy         1 0FZ       1.158600
     20 OAE         -4.6980     0.3020    17.2610 o          1 0FZ      -0.553500
     21 OAF         -6.8930     1.4670    17.3300 o          1 0FZ      -0.553500
     22 NAC         -6.2790    -0.1180    15.4150 n8         1 0FZ      -1.026100
     23 H1          -6.9490    10.6220     9.1620 h1         1 0FZ       0.044700
     24 H2          -5.9510    10.8340    10.6230 h1         1 0FZ       0.044700
     25 H3          -5.2500    10.0830     9.1630 h1         1 0FZ       0.044700
     26 H4          -4.1440     9.4730    11.1110 ha         1 0FZ       0.120000
     27 H5          -7.3320     6.6000    10.9640 ha         1 0FZ       0.132000
     28 H6          -6.0000     5.0620    12.3540 ha         1 0FZ       0.123000
     29 H7          -1.9700     8.7570    12.0100 hc         1 0FZ       0.062200
     30 H8          -2.4850     8.4120    13.6580 hc         1 0FZ       0.062200
     31 H9          -1.4000     6.3800    11.6450 h1         1 0FZ       0.065200
     32 H10         -0.5920     6.9410    13.1030 h1         1 0FZ       0.065200
     33 H14         -5.6890     5.5510    14.9200 ha         1 0FZ       0.129500
     34 H15         -6.6270     3.6880    16.2440 ha         1 0FZ       0.137000
     35 H16         -2.5760     2.9790    13.4940 ha         1 0FZ       0.129500
     36 H17         -3.5270     1.1010    14.7940 ha         1 0FZ       0.137000
     37 H18         -6.1970    -1.0740    15.7470 hn         1 0FZ       0.480000
     38 H19         -7.2070     0.0850    15.0560 hn         1 0FZ       0.480000
@<TRIPOS>BOND
     1     1     2 1   
     2     1    23 1   
     3     1    24 1   
     4     1    25 1   
     5     2     3 1   
     6     3     4 ar  
     7     3     5 ar  
     8     4     8 ar  
     9     4    26 1   
    10     5     6 ar  
    11     5    27 1   
    12     6     7 ar  
    13     6    28 1   
    14     7     8 ar  
    15     7    12 1   
    16     8     9 1   
    17     9    10 1   
    18     9    29 1   
    19     9    30 1   
    20    10    11 1   
    21    10    31 1   
    22    10    32 1   
    23    11    12 2   
    24    12    13 1   
    25    13    14 ar  
    26    13    16 ar  
    27    14    15 ar  
    28    14    33 1   
    29    15    18 ar  
    30    15    34 1   
    31    16    17 ar  
    32    16    35 1   
    33    17    18 ar  
    34    17    36 1   
    35    18    19 1   
    36    19    20 2   
    37    19    21 2   
    38    19    22 1   
    39    22    37 1   
    40    22    38 1   
@<TRIPOS>SUBSTRUCTURE
     1 0FZ         1 TEMP              0 ****  ****    0 ROOT
