@<TRIPOS>MOLECULE
0FZ
   38    40     1     0     0
SMALL
No Charge or Current Charge


@<TRIPOS>ATOM
      1 CAB         -6.2570    10.3080     9.7930 c3         1 0FZ       0.148900
      2 OAR         -6.6490     8.9730    10.1610 os         1 0FZ      -0.347100
      3 CAX         -5.8400     8.1510    10.9180 ca         1 0FZ       0.159100
      4 CAM         -4.5660     8.5470    11.3740 ca         1 0FZ      -0.197000
      5 CAW         -6.3110     6.8650    11.2210 ca         1 0FZ      -0.154000
      6 CAL         -5.5340     5.9810    11.9890 ca         1 0FZ      -0.040000
      7 CAG         -4.2750     6.3850    12.4850 ca         1 0FZ      -0.223900
      8 CAT         -3.7860     7.6610    12.1390 ca         1 0FZ      -0.018300
      9 CAO         -2.3900     8.0500    12.6050 c6         1 0FZ      -0.063100
     10 CAN         -1.4880     6.7990    12.6740 c6         1 0FZ       0.100800
     11 NAP         -2.1170     5.6710    13.3910 n2         1 0FZ      -0.570900
     12 CAS         -3.4000     5.4600    13.2910 ce         1 0FZ       0.509500
     13 CAU         -4.0120     4.3220    14.0560 ca         1 0FZ      -0.071900
     14 CAI         -5.2360     4.4850    14.7440 ca         1 0FZ      -0.107000
     15 CAK         -5.7830     3.4350    15.5010 ca         1 0FZ      -0.015000
     16 CAH         -3.3200     3.0980    14.1930 ca         1 0FZ      -0.107000
     17 CAJ         -3.8620     2.0440    14.9480 ca         1 0FZ      -0.015000
     18 CAV         -5.0990     2.2070    15.6030 ca         1 0FZ      -0.270500
     19 SAY         -5.7940     0.8620    16.5720 sy         1 0FZ       1.158600
     20 OAE         -4.7640    -0.1040    16.9450 o          1 0FZ      -0.553500
     21 OAF         -6.7830     1.3580    17.5270 o          1 0FZ      -0.553500
     22 NAC         -6.6950     0.0510    15.4850 n8         1 0FZ      -1.026100
     23 H1          -7.0450    10.7860     9.1980 h1         1 0FZ       0.044700
     24 H2          -6.0840    10.9240    10.6850 h1         1 0FZ       0.044700
     25 H3          -5.3390    10.2930     9.1910 h1         1 0FZ       0.044700
     26 H4          -4.1660     9.5280    11.1380 ha         1 0FZ       0.120000
     27 H5          -7.2830     6.5490    10.8530 ha         1 0FZ       0.132000
     28 H6          -5.9170     4.9820    12.1860 ha         1 0FZ       0.123000
     29 H7          -1.9430     8.7940    11.9320 hc         1 0FZ       0.062200
     30 H8          -2.4540     8.5160    13.5970 hc         1 0FZ       0.062200
     31 H9          -1.2520     6.4680    11.6510 h1         1 0FZ       0.065200
     32 H10         -0.5370     7.0540    13.1650 h1         1 0FZ       0.065200
     33 H14         -5.7660     5.4340    14.7000 ha         1 0FZ       0.129500
     34 H15         -6.7330     3.5830    16.0120 ha         1 0FZ       0.137000
     35 H16         -2.3610     2.9570    13.7000 ha         1 0FZ       0.129500
     36 H17         -3.3150     1.1050    15.0240 ha         1 0FZ       0.137000
     37 H18         -6.3320    -0.8890    15.6250 hn         1 0FZ       0.480000
     38 H19         -7.5800     0.0130    15.9860 hn         1 0FZ       0.480000
@<TRIPOS>BOND
     1     1     2 1   
     2     1    23 1   
     3     1    24 1   
     4     1    25 1   
     5     2     3 1   
     6     3     4 ar  
     7     3     5 ar  
     8     4     8 ar  
     9     4    26 1   
    10     5     6 ar  
    11     5    27 1   
    12     6     7 ar  
    13     6    28 1   
    14     7     8 ar  
    15     7    12 1   
    16     8     9 1   
    17     9    10 1   
    18     9    29 1   
    19     9    30 1   
    20    10    11 1   
    21    10    31 1   
    22    10    32 1   
    23    11    12 2   
    24    12    13 1   
    25    13    14 ar  
    26    13    16 ar  
    27    14    15 ar  
    28    14    33 1   
    29    15    18 ar  
    30    15    34 1   
    31    16    17 ar  
    32    16    35 1   
    33    17    18 ar  
    34    17    36 1   
    35    18    19 1   
    36    19    20 2   
    37    19    21 2   
    38    19    22 1   
    39    22    37 1   
    40    22    38 1   
@<TRIPOS>SUBSTRUCTURE
     1 0FZ         1 TEMP              0 ****  ****    0 ROOT
