@<TRIPOS>MOLECULE
0G0
   38    40     1     0     0
SMALL
bcc


@<TRIPOS>ATOM
      1 C4           4.4200    -1.3390     0.1930 c          1 0G0       0.719700
      2 C5           4.1890    -0.7740    -1.1170 cc         1 0G0      -0.039700
      3 C6           3.4340     0.3160    -1.2830 cd         1 0G0       0.012600
      4 C8           0.5430     1.7170    -0.4560 cc         1 0G0       0.207600
      5 C9          -0.3910     1.8030     0.5410 cd         1 0G0      -0.170600
      6 N1           2.8520     0.9550    -0.2240 n          1 0G0      -0.368000
      7 N3           3.7770    -0.6290     1.1870 ns         1 0G0      -0.601500
      8 C2           2.9840     0.4880     1.0610 c          1 0G0       0.829500
      9 O4           5.0930    -2.3210     0.4270 o          1 0G0      -0.574500
     10 F5A          4.7680    -1.3870    -2.1520 f          1 0G0      -0.137500
     11 N5          -0.0510     1.1570    -1.5340 nc         1 0G0      -0.350000
     12 N6          -1.2780     0.9010    -1.2570 nd         1 0G0      -0.192800
     13 N7          -1.5050     1.2930    -0.0110 na         1 0G0       0.064400
     14 C1          -2.7840     1.0590     0.6470 c5         1 0G0       0.262800
     15 O1          -2.8300    -0.2130     1.2040 os         1 0G0      -0.364600
     16 C10         -3.2810    -1.1240     0.2080 c5         1 0G0       0.131100
     17 C11         -3.8930    -2.3380     0.8600 c3         1 0G0       0.148400
     18 O5          -2.8890    -3.0550     1.5330 oh         1 0G0      -0.581800
     19 C3          -4.2760    -0.3320    -0.6480 c5         1 0G0       0.086100
     20 O3          -4.1180    -0.7050    -1.9870 oh         1 0G0      -0.561800
     21 C12         -3.9640     1.1510    -0.3280 c5         1 0G0       0.079100
     22 O2          -4.9980     1.7900     0.3780 oh         1 0G0      -0.585800
     23 H1           3.2600     0.7430    -2.2610 h4         1 0G0       0.178000
     24 H2           2.2570     2.5310    -1.4170 h1         1 0G0       0.077200
     25 H3           2.1780     2.8590     0.3050 h1         1 0G0       0.077200
     26 H4          -0.3480     2.1780     1.5490 h4         1 0G0       0.201000
     27 H5           3.8870    -0.9770     2.1320 hn         1 0G0       0.346500
     28 H6          -2.8500     1.7990     1.4450 h2         1 0G0       0.116700
     29 H7          -2.4400    -1.4410    -0.4240 h1         1 0G0       0.097700
     30 H8          -4.6980    -2.0190     1.5370 h1         1 0G0       0.029700
     31 H9          -4.3610    -2.9330     0.0650 h1         1 0G0       0.029700
     32 H10         -3.2880    -3.8400     1.9190 ho         1 0G0       0.409000
     33 H11         -5.2980    -0.5340    -0.2970 h1         1 0G0       0.043700
     34 H12         -4.8580    -0.3560    -2.4930 ho         1 0G0       0.408000
     35 H13         -3.6990     1.6940    -1.2400 h1         1 0G0       0.082700
     36 H14         -5.7760     1.8280    -0.1880 ho         1 0G0       0.415000
     37 C7           1.9780     2.1060    -0.4540 c3         1 0G0       0.103700
     38 O6           2.4480     1.0160     2.0110 o          1 0G0      -0.630500
@<TRIPOS>BOND
     1     1     2 1   
     2     1     7 1   
     3     1     9 2   
     4     2     3 2   
     5     2    10 1   
     6     3     6 1   
     7     3    23 1   
     8     4     5 2   
     9     4    11 1   
    10     4    37 1   
    11     5    13 1   
    12     5    26 1   
    13     6     8 1   
    14     6    37 1   
    15     7     8 1   
    16     7    27 1   
    17     8    38 2   
    18    11    12 2   
    19    12    13 1   
    20    13    14 1   
    21    14    15 1   
    22    14    21 1   
    23    14    28 1   
    24    15    16 1   
    25    16    17 1   
    26    16    19 1   
    27    16    29 1   
    28    17    18 1   
    29    17    30 1   
    30    17    31 1   
    31    18    32 1   
    32    19    20 1   
    33    19    21 1   
    34    19    33 1   
    35    20    34 1   
    36    21    22 1   
    37    21    35 1   
    38    22    36 1   
    39    24    37 1   
    40    25    37 1   
@<TRIPOS>SUBSTRUCTURE
     1 0G0         1 TEMP              0 ****  ****    0 ROOT
