@<TRIPOS>MOLECULE
0G0
   38    40     1     0     0
SMALL
No Charge or Current Charge


@<TRIPOS>ATOM
      1 C4           4.1600    -1.2020    -1.4470 c          1 0G0       0.577200
      2 C5           4.1500     0.2040    -1.9120 cc         1 0G0      -0.039700
      3 C6           3.4730     1.1750    -1.2080 cd         1 0G0      -0.037400
      4 C8           0.6110     1.9700     0.2770 cc         1 0G0       0.142300
      5 C9          -0.4310     1.1920     0.6740 cd         1 0G0      -0.138000
      6 N1           2.7890     0.8390    -0.0370 n          1 0G0      -0.301000
      7 N3           3.4490    -1.4060    -0.3010 ns         1 0G0      -0.467500
      8 C2           2.7600    -0.4930     0.4360 c          1 0G0       0.620000
      9 O4           4.7360    -2.1220    -2.0090 o          1 0G0      -0.499000
     10 F5A          4.8160     0.5070    -3.0400 f          1 0G0      -0.137500
     11 N5           0.1950     2.9000    -0.6330 nc         1 0G0      -0.350000
     12 N6          -1.0890     2.7410    -0.8300 nd         1 0G0      -0.192800
     13 N7          -1.4980     1.6950    -0.0390 na         1 0G0       0.085800
     14 C1          -2.9010     1.2530    -0.0420 c5         1 0G0       0.315300
     15 O1          -3.2280     0.5990     1.2170 os         1 0G0      -0.411000
     16 C10         -3.4430    -0.8060     0.9490 c5         1 0G0       0.154300
     17 C11         -4.2070    -1.4780     2.1230 c3         1 0G0       0.171600
     18 O5          -3.3690    -1.6050     3.2870 oh         1 0G0      -0.704000
     19 C3          -4.2180    -0.7500    -0.3940 c5         1 0G0       0.109300
     20 O3          -4.3650    -2.0230    -1.0400 oh         1 0G0      -0.684000
     21 C12         -3.2740     0.2190    -1.1690 c5         1 0G0       0.102300
     22 O2          -3.9090     0.8000    -2.3270 oh         1 0G0      -0.708000
     23 H1           3.4190     2.2210    -1.4970 h4         1 0G0       0.228000
     24 H2           2.5360     2.8560     0.5640 h1         1 0G0       0.077200
     25 H3           2.0890     1.6690     1.7910 h1         1 0G0       0.077200
     26 H4          -0.4910     0.3650     1.3700 h4         1 0G0       0.183000
     27 H5           3.4290    -2.3520     0.0440 hn         1 0G0       0.346500
     28 H6          -3.5040     2.1620    -0.1420 h2         1 0G0       0.116700
     29 H7          -2.4740    -1.3090     0.8230 h1         1 0G0       0.097700
     30 H8          -5.1010    -0.8820     2.3530 h1         1 0G0       0.029700
     31 H9          -4.5460    -2.4700     1.7960 h1         1 0G0       0.029700
     32 H10         -3.9290    -1.9870     4.0040 ho         1 0G0       0.508000
     33 H11         -5.2050    -0.2900    -0.2330 h1         1 0G0       0.043700
     34 H12         -5.1530    -1.9640    -1.6320 ho         1 0G0       0.507000
     35 H13         -2.3630    -0.3180    -1.4720 h1         1 0G0       0.082700
     36 H14         -3.9280     0.1070    -3.0300 ho         1 0G0       0.514000
     37 C7           2.0500     1.8830     0.7150 c3         1 0G0       0.103700
     38 O6           2.1600    -0.8340     1.4420 o          1 0G0      -0.555000
@<TRIPOS>BOND
     1     1     2 1   
     2     1     7 1   
     3     1     9 2   
     4     2     3 2   
     5     2    10 1   
     6     3     6 1   
     7     3    23 1   
     8     4     5 2   
     9     4    11 1   
    10     4    37 1   
    11     5    13 1   
    12     5    26 1   
    13     6     8 1   
    14     6    37 1   
    15     7     8 1   
    16     7    27 1   
    17     8    38 2   
    18    11    12 2   
    19    12    13 1   
    20    13    14 1   
    21    14    15 1   
    22    14    21 1   
    23    14    28 1   
    24    15    16 1   
    25    16    17 1   
    26    16    19 1   
    27    16    29 1   
    28    17    18 1   
    29    17    30 1   
    30    17    31 1   
    31    18    32 1   
    32    19    20 1   
    33    19    21 1   
    34    19    33 1   
    35    20    34 1   
    36    21    22 1   
    37    21    35 1   
    38    22    36 1   
    39    24    37 1   
    40    25    37 1   
@<TRIPOS>SUBSTRUCTURE
     1 0G0         1 TEMP              0 ****  ****    0 ROOT
