@<TRIPOS>MOLECULE
0G1
   56    60     1     0     0
SMALL
No Charge or Current Charge


@<TRIPOS>ATOM
      1 CBE         -4.9930    -5.3180     0.4450 c3         1 0G1       0.149900
      2 OBD         -4.1300    -4.8610    -0.6110 os         1 0G1      -0.343100
      3 CBA         -3.2650    -3.7980    -0.4460 ca         1 0G1       0.138100
      4 CBB         -2.4630    -3.4280    -1.5370 ca         1 0G1      -0.178000
      5 CBC         -1.5630    -2.3540    -1.4290 ca         1 0G1      -0.056000
      6 CAZ         -3.1580    -3.0850     0.7680 ca         1 0G1      -0.178000
      7 CAY         -2.2570    -2.0100     0.8750 ca         1 0G1      -0.056000
      8 CAX         -1.4640    -1.6330    -0.2260 ca         1 0G1      -0.053800
      9 CAG         -0.5030    -0.5410    -0.1080 cc         1 0G1      -0.037400
     10 CAH          0.9250    -0.6340    -0.1450 ca         1 0G1      -0.097800
     11 CAA          1.7610    -1.7460    -0.2790 ca         1 0G1      -0.055000
     12 CAB          3.1540    -1.5270    -0.2690 ca         1 0G1      -0.139000
     13 CAC          3.6970    -0.2170    -0.1310 ca         1 0G1      -0.087300
     14 CAJ          5.2360    -0.0260    -0.1170 c3         1 0G1       0.233300
     15 CAK          5.8610    -0.7420     1.1200 c3         1 0G1      -0.080400
     16 CAO          5.2490    -0.3470     2.4850 c3         1 0G1      -0.085600
     17 CAM          5.8400    -0.5570    -1.4570 c3         1 0G1      -0.080400
     18 CAN          7.3620    -0.3540    -1.6590 c3         1 0G1      -0.085600
     19 OAL          5.5700     1.3640    -0.0260 oh         1 0G1      -0.656000
     20 CAD          2.7980     0.8780     0.0130 ca         1 0G1      -0.120000
     21 CAI          1.4190     0.6310    -0.0000 ca         1 0G1      -0.040200
     22 NAE          0.3920     1.5570     0.1240 na         1 0G1      -0.217700
     23 CAF         -0.8130     0.8140     0.0370 cd         1 0G1      -0.093900
     24 CAP         -2.1360     1.4090     0.0640 cd         1 0G1       0.363800
     25 CAT         -2.3900     2.7890     0.2210 cd         1 0G1      -0.276000
     26 SAS         -1.4830     4.2820     0.4440 ss         1 0G1       0.208000
     27 CAW         -3.0550     5.1670     0.4880 cd         1 0G1      -0.192000
     28 CAV         -4.1400     4.3200     0.3380 cc         1 0G1      -0.120000
     29 CAU         -3.6920     2.9950     0.1920 cc         1 0G1      -0.109000
     30 NAR         -4.2730     1.7530     0.0150 na         1 0G1       0.008800
     31 NAQ         -3.2930     0.7500    -0.0690 nc         1 0G1      -0.472800
     32 H1          -5.6790    -4.5210     0.7610 h1         1 0G1       0.038700
     33 H2          -5.5950    -6.1680     0.1020 h1         1 0G1       0.038700
     34 H3          -4.4070    -5.6450     1.3140 h1         1 0G1       0.038700
     35 H4          -2.5380    -3.9780    -2.4720 ha         1 0G1       0.118500
     36 H5          -0.9420    -2.0780    -2.2780 ha         1 0G1       0.120000
     37 H6          -3.7590    -3.3480     1.6340 ha         1 0G1       0.118500
     38 H7          -2.1730    -1.4660     1.8130 ha         1 0G1       0.120000
     39 H8           1.3510    -2.7480    -0.3820 ha         1 0G1       0.120000
     40 H9           3.8130    -2.3860    -0.3630 ha         1 0G1       0.109000
     41 H10          5.7660    -1.8280     0.9980 hc         1 0G1       0.044700
     42 H11          6.9360    -0.5310     1.1600 hc         1 0G1       0.044700
     43 H12          4.1880    -0.6180     2.5370 hc         1 0G1       0.036033
     44 H13          5.7690    -0.8680     3.2980 hc         1 0G1       0.036033
     45 H14          5.3400     0.7310     2.6600 hc         1 0G1       0.036033
     46 H15          5.6340    -1.6300    -1.5510 hc         1 0G1       0.044700
     47 H16          5.3160    -0.0760    -2.2930 hc         1 0G1       0.044700
     48 H17          7.6360     0.7060    -1.6010 hc         1 0G1       0.036033
     49 H18          7.9400    -0.9050    -0.9080 hc         1 0G1       0.036033
     50 H19          7.6630    -0.7240    -2.6460 hc         1 0G1       0.036033
     51 H20          5.2270     1.7830    -0.8420 ho         1 0G1       0.441000
     52 H21          3.1510     1.8980     0.1410 ha         1 0G1       0.122000
     53 H22          0.4870     2.5600     0.2290 hn         1 0G1       0.353000
     54 H23         -3.0630     6.2420     0.6200 h4         1 0G1       0.150000
     55 H24         -5.1850     4.6180     0.3310 ha         1 0G1       0.143000
     56 H25         -5.2680     1.5470    -0.0530 hn         1 0G1       0.381000
@<TRIPOS>BOND
     1     1     2 1   
     2     1    32 1   
     3     1    33 1   
     4     1    34 1   
     5     2     3 1   
     6     3     4 ar  
     7     3     6 ar  
     8     4     5 ar  
     9     4    35 1   
    10     5     8 ar  
    11     5    36 1   
    12     6     7 ar  
    13     6    37 1   
    14     7     8 ar  
    15     7    38 1   
    16     8     9 1   
    17     9    10 1   
    18     9    23 2   
    19    10    11 ar  
    20    10    21 ar  
    21    11    12 ar  
    22    11    39 1   
    23    12    13 ar  
    24    12    40 1   
    25    13    14 1   
    26    13    20 ar  
    27    14    15 1   
    28    14    17 1   
    29    14    19 1   
    30    15    16 1   
    31    15    41 1   
    32    15    42 1   
    33    16    43 1   
    34    16    44 1   
    35    16    45 1   
    36    17    18 1   
    37    17    46 1   
    38    17    47 1   
    39    18    48 1   
    40    18    49 1   
    41    18    50 1   
    42    19    51 1   
    43    20    21 ar  
    44    20    52 1   
    45    21    22 1   
    46    22    23 1   
    47    22    53 1   
    48    23    24 1   
    49    24    25 1   
    50    24    31 2   
    51    25    26 1   
    52    25    29 2   
    53    26    27 1   
    54    27    28 2   
    55    27    54 1   
    56    28    29 1   
    57    28    55 1   
    58    29    30 1   
    59    30    31 1   
    60    30    56 1   
@<TRIPOS>SUBSTRUCTURE
     1 0G1         1 TEMP              0 ****  ****    0 ROOT
