@<TRIPOS>MOLECULE
0G1
   56    60     1     0     0
SMALL
bcc


@<TRIPOS>ATOM
      1 CBE         -5.0000    -5.3020     0.0570 c3         1 0G1       0.126700
      2 OBD         -4.0270    -4.8970    -0.8850 os         1 0G1      -0.319900
      3 CBA         -3.2350    -3.8510    -0.5800 ca         1 0G1       0.138100
      4 CBB         -2.2730    -3.5010    -1.5320 ca         1 0G1      -0.196000
      5 CBC         -1.4170    -2.4440    -1.2970 ca         1 0G1      -0.074000
      6 CAZ         -3.3130    -3.1210     0.6020 ca         1 0G1      -0.196000
      7 CAY         -2.4420    -2.0600     0.8220 ca         1 0G1      -0.074000
      8 CAX         -1.4830    -1.6940    -0.1170 ca         1 0G1      -0.053800
      9 CAG         -0.5380    -0.5940     0.1040 cc         1 0G1      -0.037400
     10 CAH          0.8870    -0.6980    -0.0270 ca         1 0G1      -0.097800
     11 CAA          1.7710    -1.7540    -0.2800 ca         1 0G1      -0.073000
     12 CAB          3.1260    -1.5030    -0.3110 ca         1 0G1      -0.157000
     13 CAC          3.6580    -0.2120    -0.0940 ca         1 0G1      -0.087300
     14 CAJ          5.1700     0.0020    -0.1260 c3         1 0G1       0.210100
     15 CAK          5.8190    -0.7310     1.0550 c3         1 0G1      -0.080400
     16 CAO          5.3140    -0.2930     2.4230 c3         1 0G1      -0.085600
     17 CAM          5.7260    -0.5030    -1.4720 c3         1 0G1      -0.080400
     18 CAN          7.2230    -0.3060    -1.6720 c3         1 0G1      -0.085600
     19 OAL          5.4880     1.3700     0.0350 oh         1 0G1      -0.593800
     20 CAD          2.7980     0.8380     0.1690 ca         1 0G1      -0.138000
     21 CAI          1.4280     0.5800     0.1920 ca         1 0G1      -0.040200
     22 NAE          0.3860     1.4250     0.4310 na         1 0G1      -0.167400
     23 CAF         -0.7980     0.7280     0.3970 cd         1 0G1      -0.093900
     24 CAP         -2.0350     1.4690     0.5510 cd         1 0G1       0.429100
     25 CAT         -2.2850     2.7980     0.1400 cd         1 0G1      -0.196400
     26 SAS         -1.5820     4.1530    -0.6560 ss         1 0G1      -0.081800
     27 CAW         -3.0660     5.0410    -0.4800 cd         1 0G1      -0.065100
     28 CAV         -4.0590     4.3540     0.1410 cc         1 0G1      -0.138000
     29 CAU         -3.5970     3.0550     0.4940 cc         1 0G1      -0.058300
     30 NAR         -4.0530     1.9280     1.0740 na         1 0G1       0.008400
     31 NAQ         -3.1240     0.9770     1.1210 nc         1 0G1      -0.472800
     32 H1          -5.7370    -4.5170     0.2480 h1         1 0G1       0.038700
     33 H2          -5.5080    -6.1620    -0.3720 h1         1 0G1       0.038700
     34 H3          -4.5490    -5.5980     1.0080 h1         1 0G1       0.038700
     35 H4          -2.2080    -4.0620    -2.4560 ha         1 0G1       0.136500
     36 H5          -0.6850    -2.1870    -2.0540 ha         1 0G1       0.138000
     37 H6          -4.0360    -3.3640     1.3690 ha         1 0G1       0.136500
     38 H7          -2.5140    -1.5140     1.7510 ha         1 0G1       0.138000
     39 H8           1.4030    -2.7600    -0.4440 ha         1 0G1       0.138000
     40 H9           3.7960    -2.3330    -0.4960 ha         1 0G1       0.127000
     41 H10          5.6520    -1.8030     0.9290 hc         1 0G1       0.044700
     42 H11          6.9020    -0.5860     1.0060 hc         1 0G1       0.044700
     43 H12          4.2450    -0.4780     2.5350 hc         1 0G1       0.036033
     44 H13          5.8290    -0.8440     3.2110 hc         1 0G1       0.036033
     45 H14          5.4890     0.7680     2.5960 hc         1 0G1       0.036033
     46 H15          5.4860    -1.5610    -1.5890 hc         1 0G1       0.044700
     47 H16          5.1850     0.0110    -2.2750 hc         1 0G1       0.044700
     48 H17          7.5210     0.7340    -1.5350 hc         1 0G1       0.036033
     49 H18          7.8150    -0.9140    -0.9880 hc         1 0G1       0.036033
     50 H19          7.5050    -0.5960    -2.6840 hc         1 0G1       0.036033
     51 H20          5.2180     1.8420    -0.7610 ho         1 0G1       0.402000
     52 H21          3.1680     1.8340     0.3720 ha         1 0G1       0.140000
     53 H22          0.4810     2.3810     0.7350 hn         1 0G1       0.302700
     54 H23         -3.1170     6.0490    -0.8610 h4         1 0G1       0.168000
     55 H24         -5.0460     4.7500     0.3280 ha         1 0G1       0.161000
     56 H25         -4.9620     1.7560     1.4730 hn         1 0G1       0.330700
@<TRIPOS>BOND
     1     1     2 1   
     2     1    32 1   
     3     1    33 1   
     4     1    34 1   
     5     2     3 1   
     6     3     4 ar  
     7     3     6 ar  
     8     4     5 ar  
     9     4    35 1   
    10     5     8 ar  
    11     5    36 1   
    12     6     7 ar  
    13     6    37 1   
    14     7     8 ar  
    15     7    38 1   
    16     8     9 1   
    17     9    10 1   
    18     9    23 2   
    19    10    11 ar  
    20    10    21 ar  
    21    11    12 ar  
    22    11    39 1   
    23    12    13 ar  
    24    12    40 1   
    25    13    14 1   
    26    13    20 ar  
    27    14    15 1   
    28    14    17 1   
    29    14    19 1   
    30    15    16 1   
    31    15    41 1   
    32    15    42 1   
    33    16    43 1   
    34    16    44 1   
    35    16    45 1   
    36    17    18 1   
    37    17    46 1   
    38    17    47 1   
    39    18    48 1   
    40    18    49 1   
    41    18    50 1   
    42    19    51 1   
    43    20    21 ar  
    44    20    52 1   
    45    21    22 1   
    46    22    23 1   
    47    22    53 1   
    48    23    24 1   
    49    24    25 1   
    50    24    31 2   
    51    25    26 1   
    52    25    29 2   
    53    26    27 1   
    54    27    28 2   
    55    27    54 1   
    56    28    29 1   
    57    28    55 1   
    58    29    30 1   
    59    30    31 1   
    60    30    56 1   
@<TRIPOS>SUBSTRUCTURE
     1 0G1         1 TEMP              0 ****  ****    0 ROOT
