@<TRIPOS>MOLECULE
0G2
   52    56     1     0     0
SMALL
abcg2


@<TRIPOS>ATOM
      1 CBB          5.1950     1.9180    -2.1860 c3         1 0G2      -0.086100
      2 CAY          6.1890     1.4660    -1.1250 c3         1 0G2      -0.079900
      3 CAS          5.5680     1.1960     0.2520 c3         1 0G2       0.232300
      4 CAZ          6.6280     0.7280     1.2690 c3         1 0G2      -0.079900
      5 CBC          7.7930     1.6870     1.4800 c3         1 0G2      -0.086100
      6 OBA          5.0160     2.4260     0.6780 oh         1 0G2      -0.655000
      7 CAH          4.4880     0.1230     0.1260 ca         1 0G2      -0.084300
      8 CAI          3.1580     0.4160     0.3610 ca         1 0G2      -0.116000
      9 CAG          4.8510    -1.1860    -0.2660 ca         1 0G2      -0.133000
     10 CAF          3.9250    -2.1940    -0.4110 ca         1 0G2      -0.059000
     11 CAE          2.5750    -1.9170    -0.1600 ca         1 0G2      -0.101800
     12 CAB          1.3710    -2.6780    -0.2060 cc         1 0G2      -0.219200
     13 CAD          2.2210    -0.6060     0.2160 ca         1 0G2      -0.039200
     14 NAC          0.8670    -0.5770     0.3780 na         1 0G2      -0.205700
     15 CAA          0.3520    -1.8250     0.1350 cd         1 0G2       0.000700
     16 CAJ         -1.0650    -2.0690     0.2230 cd         1 0G2      -0.062800
     17 NAK         -1.6010    -3.3020     0.3970 na         1 0G2       0.032800
     18 NAL         -2.9270    -3.3390     0.4310 nd         1 0G2      -0.479800
     19 CAN         -3.2840    -2.0730     0.2740 cc         1 0G2       0.179000
     20 CAO         -4.5230    -1.3630     0.2000 cc         1 0G2      -0.081000
     21 CAM         -2.1620    -1.2330     0.1420 cc         1 0G2      -0.254000
     22 SAQ         -2.6150     0.4100    -0.0970 ss         1 0G2       0.145000
     23 CAP         -4.3210    -0.0340     0.0110 cd         1 0G2      -0.090000
     24 CAR         -5.3320     1.0140    -0.1220 ca         1 0G2      -0.023000
     25 CAT         -5.0710     2.3300     0.2630 ca         1 0G2      -0.095000
     26 CAU         -6.0440     3.3100     0.1340 ca         1 0G2      -0.109500
     27 CAV         -7.2950     2.9920    -0.3770 ca         1 0G2      -0.102000
     28 CAW         -7.5650     1.6850    -0.7620 ca         1 0G2      -0.109500
     29 CAX         -6.5930     0.7050    -0.6410 ca         1 0G2      -0.095000
     30 H1           5.7010     2.0600    -3.1420 hc         1 0G2       0.036700
     31 H2           4.4030     1.1840    -2.3360 hc         1 0G2       0.036700
     32 H3           4.7240     2.8640    -1.9200 hc         1 0G2       0.036700
     33 H4           6.6940     0.5560    -1.4610 hc         1 0G2       0.044950
     34 H5           6.9690     2.2230    -1.0160 hc         1 0G2       0.044950
     35 H6           6.1200     0.5570     2.2250 hc         1 0G2       0.044950
     36 H7           7.0200    -0.2460     0.9680 hc         1 0G2       0.044950
     37 H8           7.4520     2.6920     1.7320 hc         1 0G2       0.036700
     38 H9           8.4190     1.3380     2.3020 hc         1 0G2       0.036700
     39 H10          8.4290     1.7590     0.5980 hc         1 0G2       0.036700
     40 H11          4.7430     2.3400     1.5980 ho         1 0G2       0.440000
     41 H12          2.8370     1.4120     0.6360 ha         1 0G2       0.124000
     42 H13          5.8910    -1.4110    -0.4680 ha         1 0G2       0.111000
     43 H14          4.2390    -3.1850    -0.7140 ha         1 0G2       0.116000
     44 H15          1.2690    -3.7150    -0.4880 ha         1 0G2       0.203000
     45 H16          0.3500     0.2080     0.7400 hn         1 0G2       0.358000
     46 H17         -1.0830    -4.1580     0.5310 hn         1 0G2       0.378000
     47 H18         -5.5000    -1.8110     0.3070 ha         1 0G2       0.148000
     48 H19         -4.1090     2.5980     0.6850 ha         1 0G2       0.117000
     49 H20         -5.8230     4.3240     0.4390 ha         1 0G2       0.115000
     50 H21         -8.0530     3.7570    -0.4780 ha         1 0G2       0.114000
     51 H22         -8.5340     1.4260    -1.1690 ha         1 0G2       0.115000
     52 H23         -6.8080    -0.3030    -0.9700 ha         1 0G2       0.117000
@<TRIPOS>BOND
     1     1     2 1   
     2     1    30 1   
     3     1    31 1   
     4     1    32 1   
     5     2     3 1   
     6     2    33 1   
     7     2    34 1   
     8     3     4 1   
     9     3     6 1   
    10     3     7 1   
    11     4     5 1   
    12     4    35 1   
    13     4    36 1   
    14     5    37 1   
    15     5    38 1   
    16     5    39 1   
    17     6    40 1   
    18     7     8 ar  
    19     7     9 ar  
    20     8    13 ar  
    21     8    41 1   
    22     9    10 ar  
    23     9    42 1   
    24    10    11 ar  
    25    10    43 1   
    26    11    12 1   
    27    11    13 ar  
    28    12    15 2   
    29    12    44 1   
    30    13    14 1   
    31    14    15 1   
    32    14    45 1   
    33    15    16 1   
    34    16    17 1   
    35    16    21 2   
    36    17    18 1   
    37    17    46 1   
    38    18    19 2   
    39    19    20 1   
    40    19    21 1   
    41    20    23 2   
    42    20    47 1   
    43    21    22 1   
    44    22    23 1   
    45    23    24 1   
    46    24    25 ar  
    47    24    29 ar  
    48    25    26 ar  
    49    25    48 1   
    50    26    27 ar  
    51    26    49 1   
    52    27    28 ar  
    53    27    50 1   
    54    28    29 ar  
    55    28    51 1   
    56    29    52 1   
@<TRIPOS>SUBSTRUCTURE
     1 0G2         1 TEMP              0 ****  ****    0 ROOT
