@<TRIPOS>MOLECULE
0G2
   52    56     1     0     0
SMALL
No Charge or Current Charge


@<TRIPOS>ATOM
      1 CBB          5.5650     1.4230    -2.4210 c3         1 0G2      -0.086100
      2 CAY          6.3820     1.2810    -1.1140 c3         1 0G2      -0.079900
      3 CAS          5.5360     1.2590     0.1960 c3         1 0G2       0.232300
      4 CAZ          6.4280     1.0110     1.4550 c3         1 0G2      -0.079900
      5 CBC          7.5170     2.0730     1.7510 c3         1 0G2      -0.086100
      6 OBA          4.9420     2.5540     0.3480 oh         1 0G2      -0.655000
      7 CAH          4.4410     0.1640     0.1130 ca         1 0G2      -0.084300
      8 CAI          3.0530     0.4810     0.1140 ca         1 0G2      -0.116000
      9 CAG          4.8240    -1.2050     0.0110 ca         1 0G2      -0.133000
     10 CAF          3.8620    -2.2320    -0.0740 ca         1 0G2      -0.059000
     11 CAE          2.5140    -1.8670    -0.0610 ca         1 0G2      -0.101800
     12 CAB          1.3320    -2.6730    -0.1370 cc         1 0G2      -0.219200
     13 CAD          2.1190    -0.5600     0.0280 ca         1 0G2      -0.039200
     14 NAC          0.7360    -0.4590     0.0120 na         1 0G2      -0.205700
     15 CAA          0.2670    -1.7850    -0.0910 cd         1 0G2       0.000700
     16 CAJ         -1.1140    -2.1890    -0.1430 cd         1 0G2      -0.062800
     17 NAK         -1.6340    -3.4980    -0.2460 na         1 0G2       0.032800
     18 NAL         -3.0530    -3.5080    -0.2700 nd         1 0G2      -0.479800
     19 CAN         -3.3190    -2.2220    -0.1820 cc         1 0G2       0.179000
     20 CAO         -4.4970    -1.4360    -0.1460 cc         1 0G2      -0.081000
     21 CAM         -2.2300    -1.4250    -0.1070 cc         1 0G2      -0.254000
     22 SAQ         -2.4670     0.2870     0.0120 ss         1 0G2       0.145000
     23 CAP         -4.2410    -0.0640    -0.0430 cd         1 0G2      -0.090000
     24 CAR         -5.2500     1.0200     0.0180 ca         1 0G2      -0.023000
     25 CAT         -4.8560     2.3740     0.1220 ca         1 0G2      -0.095000
     26 CAU         -5.8140     3.4010     0.1800 ca         1 0G2      -0.109500
     27 CAV         -7.1820     3.0930     0.1340 ca         1 0G2      -0.102000
     28 CAW         -7.5900     1.7550     0.0310 ca         1 0G2      -0.109500
     29 CAX         -6.6330     0.7270    -0.0260 ca         1 0G2      -0.095000
     30 H1           6.2380     1.4660    -3.2860 hc         1 0G2       0.036700
     31 H2           4.8910     0.5700    -2.5620 hc         1 0G2       0.036700
     32 H3           4.9660     2.3410    -2.4120 hc         1 0G2       0.036700
     33 H4           6.9800     0.3640    -1.1770 hc         1 0G2       0.044950
     34 H5           7.0970     2.1100    -1.0740 hc         1 0G2       0.044950
     35 H6           5.7790     0.9310     2.3350 hc         1 0G2       0.044950
     36 H7           6.9290     0.0410     1.3620 hc         1 0G2       0.044950
     37 H8           7.0800     3.0700     1.8800 hc         1 0G2       0.036700
     38 H9           8.0470     1.8180     2.6760 hc         1 0G2       0.036700
     39 H10          8.2580     2.1190     0.9450 hc         1 0G2       0.036700
     40 H11          4.4840     2.5470     1.2140 ho         1 0G2       0.440000
     41 H12          2.6980     1.5070     0.1700 ha         1 0G2       0.124000
     42 H13          5.8760    -1.4800    -0.0080 ha         1 0G2       0.111000
     43 H14          4.1600    -3.2750    -0.1520 ha         1 0G2       0.116000
     44 H15          1.2740    -3.7550    -0.2170 ha         1 0G2       0.203000
     45 H16          0.1790     0.3840     0.0630 hn         1 0G2       0.358000
     46 H17         -1.0930    -4.3580    -0.2990 hn         1 0G2       0.378000
     47 H18         -5.4780    -1.8920    -0.1950 ha         1 0G2       0.148000
     48 H19         -3.8060     2.6500     0.1590 ha         1 0G2       0.117000
     49 H20         -5.4950     4.4380     0.2600 ha         1 0G2       0.115000
     50 H21         -7.9230     3.8880     0.1790 ha         1 0G2       0.114000
     51 H22         -8.6500     1.5120    -0.0040 ha         1 0G2       0.115000
     52 H23         -6.9830    -0.2980    -0.1060 ha         1 0G2       0.117000
@<TRIPOS>BOND
     1     1     2 1   
     2     1    30 1   
     3     1    31 1   
     4     1    32 1   
     5     2     3 1   
     6     2    33 1   
     7     2    34 1   
     8     3     4 1   
     9     3     6 1   
    10     3     7 1   
    11     4     5 1   
    12     4    35 1   
    13     4    36 1   
    14     5    37 1   
    15     5    38 1   
    16     5    39 1   
    17     6    40 1   
    18     7     8 ar  
    19     7     9 ar  
    20     8    13 ar  
    21     8    41 1   
    22     9    10 ar  
    23     9    42 1   
    24    10    11 ar  
    25    10    43 1   
    26    11    12 1   
    27    11    13 ar  
    28    12    15 2   
    29    12    44 1   
    30    13    14 1   
    31    14    15 1   
    32    14    45 1   
    33    15    16 1   
    34    16    17 1   
    35    16    21 2   
    36    17    18 1   
    37    17    46 1   
    38    18    19 2   
    39    19    20 1   
    40    19    21 1   
    41    20    23 2   
    42    20    47 1   
    43    21    22 1   
    44    22    23 1   
    45    23    24 1   
    46    24    25 ar  
    47    24    29 ar  
    48    25    26 ar  
    49    25    48 1   
    50    26    27 ar  
    51    26    49 1   
    52    27    28 ar  
    53    27    50 1   
    54    28    29 ar  
    55    28    51 1   
    56    29    52 1   
@<TRIPOS>SUBSTRUCTURE
     1 0G2         1 TEMP              0 ****  ****    0 ROOT
