@<TRIPOS>MOLECULE
0G3
   71    75     1     0     0
SMALL
abcg2


@<TRIPOS>ATOM
      1 C           58.7850     9.4540    35.7320 ca         1 0G3       0.171000
      2 O           65.3320    15.7240    25.3240 o          1 0G3      -0.581100
      3 O1          69.0730    14.9390    30.1260 o          1 0G3      -0.580100
      4 C14         68.4820    14.8400    29.0650 c          1 0G3       0.621700
      5 C15         68.6090    15.8950    28.0100 ca         1 0G3      -0.129600
      6 C23         67.5730    16.1670    27.1200 ca         1 0G3      -0.113000
      7 C19         67.7160    17.1750    26.1670 ca         1 0G3      -0.024000
      8 N3          66.7240    17.5210    25.2480 ns         1 0G3      -0.155000
      9 C20         65.6310    16.8060    24.8570 c          1 0G3       0.609100
     10 C21         64.8150    17.4990    23.7850 c3         1 0G3      -0.159400
     11 C22         63.7110    16.6330    23.2060 c3         1 0G3      -0.077100
     12 C18         68.9040    17.9090    26.1320 ca         1 0G3      -0.146000
     13 C17         69.9230    17.6410    27.0290 ca         1 0G3      -0.090000
     14 C16         69.7840    16.6380    27.9750 ca         1 0G3      -0.081000
     15 C13         67.2760    12.7120    29.5200 ca         1 0G3      -0.034000
     16 C12         66.3230    11.8570    28.9620 ca         1 0G3      -0.124000
     17 C11         65.8480    10.7600    29.6550 ca         1 0G3      -0.120500
     18 C24         67.7490    12.4320    30.8020 ca         1 0G3      -0.124000
     19 C25         67.2460    11.3470    31.5030 ca         1 0G3      -0.120500
     20 C10         66.2890    10.5000    30.9530 ca         1 0G3       0.277000
     21 C9          64.5680     8.9190    31.7930 ca         1 0G3       0.620900
     22 N           64.4560     7.7520    32.4250 nb         1 0G3      -0.743000
     23 C8          63.2450     7.2330    32.5830 ca         1 0G3       0.384900
     24 C7          62.0840     7.8210    32.1210 ca         1 0G3      -0.196000
     25 C26         63.4490     9.6200    31.3190 ca         1 0G3      -0.218000
     26 C6          62.1940     9.0560    31.4770 ca         1 0G3       0.052000
     27 C5          60.9880     9.7410    31.0070 cc         1 0G3      -0.135000
     28 N4          60.8120    10.1720    29.7210 na         1 0G3      -0.124500
     29 C27         61.7720    10.0640    28.6420 c3         1 0G3       0.048900
     30 C28         59.5560    10.6860    29.6440 cc         1 0G3       0.475800
     31 S           58.8770    11.3820    28.1930 ss         1 0G3      -0.342300
     32 C29         58.0880     9.9210    27.4510 c3         1 0G3       0.022900
     33 N5          58.9390    10.6190    30.7980 nd         1 0G3      -0.620000
     34 C4          59.8100    10.0380    31.6630 cd         1 0G3       0.307500
     35 C3          59.4670     9.8310    33.0720 ca         1 0G3      -0.123500
     36 C2          58.1560     9.5210    33.4370 ca         1 0G3      -0.064500
     37 C1          57.8060     9.3290    34.7650 ca         1 0G3      -0.158000
     38 C30         60.4220     9.9640    34.0810 ca         1 0G3      -0.064500
     39 C31         60.0910     9.7730    35.4130 ca         1 0G3      -0.158000
     40 F           58.4580     9.2680    37.0210 f          1 0G3      -0.181000
     41 H1          66.6410    15.6270    27.1830 ha         1 0G3       0.144000
     42 H2          66.8920    18.3810    24.7470 hn         1 0G3       0.151000
     43 H3          65.4870    17.8410    22.9920 hc         1 0G3       0.059200
     44 H4          64.3920    18.4090    24.2230 hc         1 0G3       0.059200
     45 H5          63.1620    17.1920    22.4500 hc         1 0G3       0.045367
     46 H6          64.1090    15.7360    22.7310 hc         1 0G3       0.045367
     47 H7          63.0000    16.3220    23.9700 hc         1 0G3       0.045367
     48 H8          69.0280    18.6960    25.3980 ha         1 0G3       0.112000
     49 H9          70.8360    18.2200    26.9840 ha         1 0G3       0.121000
     50 H10         70.5840    16.4310    28.6720 ha         1 0G3       0.139000
     51 H11         67.3250    13.7820    27.7930 hn         1 0G3       0.161000
     52 H12         65.9540    12.0420    27.9600 ha         1 0G3       0.133500
     53 H13         65.1380    10.1020    29.1710 ha         1 0G3       0.119000
     54 H14         68.4960    13.0530    31.2680 ha         1 0G3       0.133500
     55 H15         67.6130    11.1570    32.5050 ha         1 0G3       0.119000
     56 H16         66.5200     8.9340    32.2740 hn         1 0G3       0.511000
     57 H17         63.2010     6.2830    33.1030 h4         1 0G3       0.021100
     58 H18         61.1270     7.3390    32.2570 ha         1 0G3       0.137000
     59 H19         63.5550    10.5990    30.8750 ha         1 0G3       0.135000
     60 H20         62.2670     9.0970    28.6800 h1         1 0G3       0.062700
     61 H21         61.2530    10.1560    27.6920 h1         1 0G3       0.062700
     62 H22         62.5220    10.8500    28.7070 h1         1 0G3       0.062700
     63 H23         57.5930    10.2630    26.5440 h1         1 0G3       0.066367
     64 H24         58.8290     9.1690    27.1890 h1         1 0G3       0.066367
     65 H25         57.3470     9.5010    28.1260 h1         1 0G3       0.066367
     66 H26         57.3970     9.4180    32.6720 ha         1 0G3       0.126000
     67 H27         56.7890     9.0830    35.0400 ha         1 0G3       0.131000
     68 H28         61.4400    10.2380    33.8340 ha         1 0G3       0.126000
     69 H29         60.8360     9.8810    36.1900 ha         1 0G3       0.131000
     70 N1          65.8460     9.3950    31.6820 nu         1 0G3      -0.957900
     71 N2          67.6870    13.7940    28.7340 ns         1 0G3      -0.140000
@<TRIPOS>BOND
     1     1    37 ar  
     2     1    39 ar  
     3     1    40 1   
     4     2     9 2   
     5     3     4 2   
     6     4     5 1   
     7     4    71 1   
     8     5     6 ar  
     9     5    14 ar  
    10     6     7 ar  
    11     6    41 1   
    12     7     8 1   
    13     7    12 ar  
    14     8     9 1   
    15     8    42 1   
    16     9    10 1   
    17    10    11 1   
    18    10    43 1   
    19    10    44 1   
    20    11    45 1   
    21    11    46 1   
    22    11    47 1   
    23    12    13 ar  
    24    12    48 1   
    25    13    14 ar  
    26    13    49 1   
    27    14    50 1   
    28    15    16 ar  
    29    15    18 ar  
    30    15    71 1   
    31    16    17 ar  
    32    16    52 1   
    33    17    20 ar  
    34    17    53 1   
    35    18    19 ar  
    36    18    54 1   
    37    19    20 ar  
    38    19    55 1   
    39    20    70 1   
    40    21    22 ar  
    41    21    25 ar  
    42    21    70 1   
    43    22    23 ar  
    44    23    24 ar  
    45    23    57 1   
    46    24    26 ar  
    47    24    58 1   
    48    25    26 ar  
    49    25    59 1   
    50    26    27 1   
    51    27    28 1   
    52    27    34 2   
    53    28    29 1   
    54    28    30 1   
    55    29    60 1   
    56    29    61 1   
    57    29    62 1   
    58    30    31 1   
    59    30    33 2   
    60    31    32 1   
    61    32    63 1   
    62    32    64 1   
    63    32    65 1   
    64    33    34 1   
    65    34    35 1   
    66    35    36 ar  
    67    35    38 ar  
    68    36    37 ar  
    69    36    66 1   
    70    37    67 1   
    71    38    39 ar  
    72    38    68 1   
    73    39    69 1   
    74    51    71 1   
    75    56    70 1   
@<TRIPOS>SUBSTRUCTURE
     1 0G3         1 TEMP              0 ****  ****    0 ROOT
