@<TRIPOS>MOLECULE
0G3
   71    75     1     0     0
SMALL
No Charge or Current Charge


@<TRIPOS>ATOM
      1 C           59.0730     8.3170    35.9930 ca         1 0G3       0.171000
      2 O           65.6760    15.9330    24.8050 o          1 0G3      -0.581100
      3 O1          68.9830    15.3990    30.2500 o          1 0G3      -0.580100
      4 C14         68.3390    15.3870    29.2050 c          1 0G3       0.621700
      5 C15         68.5140    16.4840    28.1640 ca         1 0G3      -0.129600
      6 C23         67.7980    16.4900    26.9380 ca         1 0G3      -0.113000
      7 C19         67.9820    17.5260    25.9930 ca         1 0G3      -0.024000
      8 N3          67.2960    17.5850    24.7470 ns         1 0G3      -0.155000
      9 C20         66.2570    16.8350    24.2110 c          1 0G3       0.609100
     10 C21         65.8400    17.2550    22.7940 c3         1 0G3      -0.159400
     11 C22         66.2870    16.2230    21.7350 c3         1 0G3      -0.077100
     12 C18         68.8960    18.5550    26.2740 ca         1 0G3      -0.146000
     13 C17         69.6120    18.5630    27.4790 ca         1 0G3      -0.090000
     14 C16         69.4220    17.5380    28.4180 ca         1 0G3      -0.081000
     15 C13         66.9920    13.2230    29.5790 ca         1 0G3      -0.034000
     16 C12         65.9150    12.5000    29.0310 ca         1 0G3      -0.124000
     17 C11         65.4460    11.3280    29.6510 ca         1 0G3      -0.120500
     18 C24         67.6050    12.7380    30.7560 ca         1 0G3      -0.124000
     19 C25         67.1330    11.5640    31.3720 ca         1 0G3      -0.120500
     20 C10         66.0420    10.8610    30.8360 ca         1 0G3       0.277000
     21 C9          64.4190     9.0350    31.5410 ca         1 0G3       0.620900
     22 N           64.5950     7.8090    32.0270 nb         1 0G3      -0.743000
     23 C8          63.4920     7.0410    32.1680 ca         1 0G3       0.384900
     24 C7          62.2020     7.4880    31.8420 ca         1 0G3      -0.196000
     25 C26         63.1750     9.5860    31.2110 ca         1 0G3      -0.218000
     26 C6          62.0280     8.7970    31.3640 ca         1 0G3       0.052000
     27 C5          60.7080     9.3080    31.0060 cc         1 0G3      -0.135000
     28 N4          60.3270     9.8350    29.7900 na         1 0G3      -0.124500
     29 C27         61.1640    10.0460    28.5960 c3         1 0G3       0.048900
     30 C28         58.9810    10.0750    29.9220 cc         1 0G3       0.475800
     31 S           58.0270    10.7720    28.6160 ss         1 0G3      -0.342300
     32 C29         56.3370    10.8710    29.3640 c3         1 0G3       0.022900
     33 N5          58.4910     9.7610    31.1020 nd         1 0G3      -0.620000
     34 C4          59.5750     9.2670    31.8090 cd         1 0G3       0.307500
     35 C3          59.4320     8.9120    33.2460 ca         1 0G3      -0.123500
     36 C2          58.1420     8.6630    33.7760 ca         1 0G3      -0.064500
     37 C1          57.9660     8.3550    35.1370 ca         1 0G3      -0.158000
     38 C30         60.5310     8.9060    34.1390 ca         1 0G3      -0.064500
     39 C31         60.3530     8.6000    35.5000 ca         1 0G3      -0.158000
     40 F           58.9040     8.0260    37.3020 f          1 0G3      -0.181000
     41 H1          67.1070    15.6860    26.7150 ha         1 0G3       0.144000
     42 H2          67.6370    18.3110    24.1310 hn         1 0G3       0.151000
     43 H3          66.2880    18.2240    22.5400 hc         1 0G3       0.059200
     44 H4          64.7470    17.3330    22.7570 hc         1 0G3       0.059200
     45 H5          65.9770    16.5440    20.7330 hc         1 0G3       0.045367
     46 H6          67.3790    16.1130    21.7360 hc         1 0G3       0.045367
     47 H7          65.8400    15.2410    21.9330 hc         1 0G3       0.045367
     48 H8          69.0540    19.3570    25.5550 ha         1 0G3       0.112000
     49 H9          70.3160    19.3660    27.6880 ha         1 0G3       0.121000
     50 H10         69.9890    17.5660    29.3470 ha         1 0G3       0.139000
     51 H11         66.9450    14.5360    28.0090 hn         1 0G3       0.161000
     52 H12         65.4380    12.8440    28.1140 ha         1 0G3       0.133500
     53 H13         64.6330    10.7760    29.1900 ha         1 0G3       0.119000
     54 H14         68.4510    13.2480    31.2060 ha         1 0G3       0.133500
     55 H15         67.6160    11.2060    32.2770 ha         1 0G3       0.119000
     56 H16         66.3110     9.2060    32.0120 hn         1 0G3       0.511000
     57 H17         63.6490     6.0340    32.5520 h4         1 0G3       0.021100
     58 H18         61.3530     6.8230    31.9680 ha         1 0G3       0.137000
     59 H19         63.0960    10.6110    30.8690 ha         1 0G3       0.135000
     60 H20         62.0460     9.3960    28.6360 h1         1 0G3       0.062700
     61 H21         60.5930     9.8070    27.6910 h1         1 0G3       0.062700
     62 H22         61.4870    11.0930    28.5560 h1         1 0G3       0.062700
     63 H23         55.6350    11.2970    28.6360 h1         1 0G3       0.066367
     64 H24         55.9950     9.8680    29.6480 h1         1 0G3       0.066367
     65 H25         56.3610    11.5100    30.2560 h1         1 0G3       0.066367
     66 H26         57.2670     8.6860    33.1300 ha         1 0G3       0.126000
     67 H27         56.9730     8.1490    35.5270 ha         1 0G3       0.131000
     68 H28         61.5290     9.1720    33.8060 ha         1 0G3       0.126000
     69 H29         61.2050     8.5950    36.1750 ha         1 0G3       0.131000
     70 N1          65.6090     9.6960    31.4670 nu         1 0G3      -0.957900
     71 N2          67.4120    14.3980    28.8940 ns         1 0G3      -0.140000
@<TRIPOS>BOND
     1     1    37 ar  
     2     1    39 ar  
     3     1    40 1   
     4     2     9 2   
     5     3     4 2   
     6     4     5 1   
     7     4    71 1   
     8     5     6 ar  
     9     5    14 ar  
    10     6     7 ar  
    11     6    41 1   
    12     7     8 1   
    13     7    12 ar  
    14     8     9 1   
    15     8    42 1   
    16     9    10 1   
    17    10    11 1   
    18    10    43 1   
    19    10    44 1   
    20    11    45 1   
    21    11    46 1   
    22    11    47 1   
    23    12    13 ar  
    24    12    48 1   
    25    13    14 ar  
    26    13    49 1   
    27    14    50 1   
    28    15    16 ar  
    29    15    18 ar  
    30    15    71 1   
    31    16    17 ar  
    32    16    52 1   
    33    17    20 ar  
    34    17    53 1   
    35    18    19 ar  
    36    18    54 1   
    37    19    20 ar  
    38    19    55 1   
    39    20    70 1   
    40    21    22 ar  
    41    21    25 ar  
    42    21    70 1   
    43    22    23 ar  
    44    23    24 ar  
    45    23    57 1   
    46    24    26 ar  
    47    24    58 1   
    48    25    26 ar  
    49    25    59 1   
    50    26    27 1   
    51    27    28 1   
    52    27    34 2   
    53    28    29 1   
    54    28    30 1   
    55    29    60 1   
    56    29    61 1   
    57    29    62 1   
    58    30    31 1   
    59    30    33 2   
    60    31    32 1   
    61    32    63 1   
    62    32    64 1   
    63    32    65 1   
    64    33    34 1   
    65    34    35 1   
    66    35    36 ar  
    67    35    38 ar  
    68    36    37 ar  
    69    36    66 1   
    70    37    67 1   
    71    38    39 ar  
    72    38    68 1   
    73    39    69 1   
    74    51    71 1   
    75    56    70 1   
@<TRIPOS>SUBSTRUCTURE
     1 0G3         1 TEMP              0 ****  ****    0 ROOT
