@<TRIPOS>MOLECULE
0G4
   38    39     1     0     0
SMALL
bcc


@<TRIPOS>ATOM
      1 F5          -1.5260     1.9910    -2.0050 f          1 0G4      -0.157500
      2 C5          -2.1940     1.6500    -0.8850 cc         1 0G4      -0.051100
      3 C4          -2.4990     2.6770     0.0820 cc         1 0G4       0.748600
      4 N4          -2.0250     3.8760    -0.0950 n2         1 0G4      -0.917100
      5 N3          -3.2630     2.3140     1.1340 nc         1 0G4      -0.680300
      6 C2          -3.6560     1.0550     1.3440 cd         1 0G4       0.438000
      7 O2          -4.3330     0.7120     2.3200 o          1 0G4      -0.540000
      8 C6          -2.5270     0.3770    -0.6660 cd         1 0G4      -0.030400
      9 N1          -3.2570     0.0550     0.4440 n          1 0G4      -0.416000
     10 C1          -3.6020    -1.3230     0.7690 c5         1 0G4       0.343500
     11 O4          -3.4980    -2.1110    -0.3860 os         1 0G4      -0.427600
     12 C8          -2.7030    -1.8980     1.8670 c5         1 0G4       0.021700
     13 S3          -2.7100    -3.6730     1.5450 ss         1 0G4      -0.511200
     14 C7          -2.8090    -3.3300    -0.2440 c5         1 0G4       0.286200
     15 C3          -1.4590    -3.3050    -0.9270 c3         1 0G4       0.198400
     16 O5          -0.6030    -2.4040    -0.2790 os         1 0G4      -0.530200
     17 PA           0.6690    -1.8150    -1.1610 p5         1 0G4       1.453800
     18 O1A          1.5290    -2.9750    -1.5660 o          1 0G4      -0.871500
     19 O2A          0.1550    -0.8710    -2.2070 o          1 0G4      -0.871500
     20 O3A          1.3250    -1.0140     0.0940 os         1 0G4      -0.698800
     21 PB           2.3460     0.2980    -0.0690 p5         1 0G4       1.467700
     22 O2B          3.1920     0.0400    -1.2840 o          1 0G4      -0.889000
     23 O1B          2.9930     0.4750     1.2730 o          1 0G4      -0.889000
     24 N3B          1.2340     1.5440    -0.2940 n7         1 0G4      -0.963400
     25 PG           1.5400     3.1530     0.2220 p5         1 0G4       1.417700
     26 O3G          0.5660     3.9840    -0.7740 oh         1 0G4      -0.854400
     27 O1G          1.1010     3.3200     1.6530 o          1 0G4      -0.891500
     28 O2C          2.9540     3.5380    -0.1360 o          1 0G4      -0.891500
     29 H1          -0.4120     3.9520    -0.5210 ho         1 0G4       0.472000
     30 H2          -2.2990     4.4610     0.6890 hn         1 0G4       0.343400
     31 H3          -2.2340    -0.4070    -1.3450 h4         1 0G4       0.183000
     32 H4          -4.6390    -1.3290     1.1090 h2         1 0G4       0.045700
     33 H5          -1.6950    -1.4920     1.8070 h1         1 0G4       0.113200
     34 H6          -3.1190    -1.6970     2.8510 h1         1 0G4       0.113200
     35 H7          -3.4060    -4.1230    -0.7030 h2         1 0G4       0.020700
     36 H8          -1.0580    -4.3250    -0.9170 h1         1 0G4       0.006200
     37 H9          -1.6240    -3.0360    -1.9800 h1         1 0G4       0.006200
     38 H12          0.6160     1.4280    -1.0870 hn         1 0G4       0.401800
@<TRIPOS>BOND
     1     1     2 1   
     2     2     3 1   
     3     2     8 2   
     4     3     4 2   
     5     3     5 1   
     6     4    30 1   
     7     5     6 2   
     8     6     7 1   
     9     6     9 1   
    10     8     9 1   
    11     8    31 1   
    12     9    10 1   
    13    10    11 1   
    14    10    12 1   
    15    10    32 1   
    16    11    14 1   
    17    12    13 1   
    18    12    33 1   
    19    12    34 1   
    20    13    14 1   
    21    14    15 1   
    22    14    35 1   
    23    15    16 1   
    24    15    36 1   
    25    15    37 1   
    26    16    17 1   
    27    17    18 1   
    28    17    19 1   
    29    17    20 1   
    30    20    21 1   
    31    21    22 1   
    32    21    23 1   
    33    21    24 1   
    34    24    25 1   
    35    24    38 1   
    36    25    26 1   
    37    25    27 1   
    38    25    28 1   
    39    26    29 1   
@<TRIPOS>SUBSTRUCTURE
     1 0G4         1 TEMP              0 ****  ****    0 ROOT
