@<TRIPOS>MOLECULE
0G4
   38    39     1     0     0
SMALL
No Charge or Current Charge


@<TRIPOS>ATOM
      1 F5          -1.6710     2.8680    -2.1510 f          1 0G4      -0.157500
      2 C5          -2.4850     2.3400    -1.2160 cc         1 0G4      -0.051100
      3 C4          -3.5360     3.1120    -0.6160 cc         1 0G4       0.748600
      4 N4          -3.7760     4.3390    -0.9330 n2         1 0G4      -0.917100
      5 N3          -4.3660     2.6050     0.3350 nc         1 0G4      -0.680300
      6 C2          -4.1660     1.3450     0.6920 cd         1 0G4       0.371000
      7 O2          -4.9040     0.9080     1.5550 o          1 0G4      -0.540000
      8 C6          -2.3370     1.0470    -0.8070 cd         1 0G4      -0.080400
      9 N1          -3.1850     0.4900     0.1550 n          1 0G4      -0.349000
     10 C1          -3.0460    -0.9170     0.6150 c5         1 0G4       0.366700
     11 O4          -2.4470    -1.7570    -0.3890 os         1 0G4      -0.474000
     12 C8          -2.0500    -0.9280     1.8060 c5         1 0G4       0.069600
     13 S3          -1.5170    -2.7150     1.9450 ss         1 0G4      -0.607000
     14 C7          -2.1650    -3.0340     0.2160 c5         1 0G4       0.357300
     15 C3          -1.2370    -3.9310    -0.6810 c3         1 0G4       0.221600
     16 O5           0.1530    -3.5340    -0.6970 os         1 0G4      -0.553400
     17 PA           0.7100    -2.2600    -1.5220 p5         1 0G4       1.453800
     18 O1A          2.1010    -2.5800    -1.9650 o          1 0G4      -0.871500
     19 O2A         -0.1690    -1.9560    -2.6930 o          1 0G4      -0.871500
     20 O3A          0.6220    -1.1750    -0.3760 os         1 0G4      -0.698800
     21 PB           1.6590    -0.0170    -0.5830 p5         1 0G4       1.467700
     22 O2B          1.5510     0.7150    -1.8640 o          1 0G4      -0.889000
     23 O1B          3.0300    -0.3000    -0.0770 o          1 0G4      -0.889000
     24 N3B          0.9010     1.0070     0.3240 n7         1 0G4      -1.018600
     25 PG           1.7840     2.1030     0.9860 p5         1 0G4       1.417700
     26 O3G          0.6290     2.9630     1.4910 oh         1 0G4      -0.863400
     27 O1G          2.2620     1.7600     2.3300 o          1 0G4      -0.891500
     28 O2C          2.6480     2.8850     0.0790 o          1 0G4      -0.891500
     29 H1           1.0790     2.5260     2.2660 ho         1 0G4       0.481000
     30 H2          -4.5710     4.6240    -0.3510 hn         1 0G4       0.343400
     31 H3          -1.5710     0.3760    -1.1850 h4         1 0G4       0.233000
     32 H4          -4.0350    -1.2990     0.8960 h2         1 0G4       0.045700
     33 H5          -1.1800    -0.2950     1.5890 h1         1 0G4       0.113200
     34 H6          -2.5190    -0.5680     2.7310 h1         1 0G4       0.113200
     35 H7          -3.1210    -3.5600     0.3330 h2         1 0G4       0.020700
     36 H8          -1.3050    -4.9570    -0.2990 h1         1 0G4       0.006200
     37 H9          -1.6440    -3.9520    -1.7000 h1         1 0G4       0.006200
     38 H12          0.9430     1.4940    -0.5650 hn         1 0G4       0.457000
@<TRIPOS>BOND
     1     1     2 1   
     2     2     3 1   
     3     2     8 2   
     4     3     4 2   
     5     3     5 1   
     6     4    30 1   
     7     5     6 2   
     8     6     7 1   
     9     6     9 1   
    10     8     9 1   
    11     8    31 1   
    12     9    10 1   
    13    10    11 1   
    14    10    12 1   
    15    10    32 1   
    16    11    14 1   
    17    12    13 1   
    18    12    33 1   
    19    12    34 1   
    20    13    14 1   
    21    14    15 1   
    22    14    35 1   
    23    15    16 1   
    24    15    36 1   
    25    15    37 1   
    26    16    17 1   
    27    17    18 1   
    28    17    19 1   
    29    17    20 1   
    30    20    21 1   
    31    21    22 1   
    32    21    23 1   
    33    21    24 1   
    34    24    25 1   
    35    24    38 1   
    36    25    26 1   
    37    25    27 1   
    38    25    28 1   
    39    26    29 1   
@<TRIPOS>SUBSTRUCTURE
     1 0G4         1 TEMP              0 ****  ****    0 ROOT
