@<TRIPOS>MOLECULE
0G5
   32    32     1     0     0
SMALL
No Charge or Current Charge


@<TRIPOS>ATOM
      1 N2          -5.2760     2.0520     1.1140 n8         1 0G5      -0.986200
      2 N4          -1.1610    -1.3300     0.0630 ns         1 0G5      -0.492900
      3 C11         -5.6020     1.1640    -0.0600 c3         1 0G5       0.020500
      4 C12         -7.1430     0.9340    -0.3650 c          1 0G5       0.725000
      5 C13         -4.8570    -0.1920     0.0740 c3         1 0G5      -0.099400
      6 C14         -3.3110    -0.0850     0.0410 c3         1 0G5      -0.097400
      7 C15         -2.6180    -1.4600     0.1030 c3         1 0G5       0.095000
      8 C16         -0.2840    -2.3920     0.1210 c          1 0G5       0.603700
      9 C17          1.1950    -2.0630     0.0660 ca         1 0G5      -0.142600
     10 C18          2.1400    -3.1140     0.1210 ca         1 0G5      -0.048000
     11 C19          3.5200    -2.8460     0.0730 ca         1 0G5      -0.127000
     12 C20          3.9770    -1.5220    -0.0320 ca         1 0G5      -0.071000
     13 C21          3.0510    -0.4700    -0.0880 ca         1 0G5       0.186000
     14 C22          1.6720    -0.7310    -0.0400 ca         1 0G5      -0.058000
     15 O5          -7.8470     0.4390     0.5080 o          1 0G5      -0.729500
     16 O6          -0.6920    -3.5420     0.2120 o          1 0G5      -0.608100
     17 I            3.7540     1.5730    -0.2490 i          1 0G5      -0.319000
     18 H2          -5.7090     1.6540     1.9560 hn         1 0G5       0.374500
     19 H5          -0.7630    -0.4040    -0.0120 hn         1 0G5       0.312500
     20 H13         -5.1920     1.6620    -0.9500 h1         1 0G5       0.042700
     21 H14         -5.1710    -0.6940     0.9980 hc         1 0G5       0.048200
     22 H15         -5.1740    -0.8400    -0.7530 hc         1 0G5       0.048200
     23 H16         -3.0050     0.4290    -0.8790 hc         1 0G5       0.031700
     24 H17         -2.9620     0.5230     0.8840 hc         1 0G5       0.031700
     25 H18         -2.9410    -2.0760    -0.7470 h1         1 0G5       0.053700
     26 H19         -2.9030    -1.9750     1.0300 h1         1 0G5       0.053700
     27 H20          1.8080    -4.1480     0.2020 ha         1 0G5       0.138000
     28 H21          4.2340    -3.6650     0.1160 ha         1 0G5       0.116000
     29 H22          5.0420    -1.3110    -0.0700 ha         1 0G5       0.122000
     30 H23          0.9920     0.1140    -0.0860 ha         1 0G5       0.133000
     31 OXT         -7.5870     1.3200    -1.4400 o          1 0G5      -0.729500
     32 H1          -4.2690     1.9970     1.3030 hn         1 0G5       0.374500
@<TRIPOS>BOND
     1     1     3 1   
     2     1    18 1   
     3     1    32 1   
     4     2     7 1   
     5     2     8 1   
     6     2    19 1   
     7     3     4 1   
     8     3     5 1   
     9     3    20 1   
    10     4    15 1   
    11     4    31 1   
    12     5     6 1   
    13     5    21 1   
    14     5    22 1   
    15     6     7 1   
    16     6    23 1   
    17     6    24 1   
    18     7    25 1   
    19     7    26 1   
    20     8     9 1   
    21     8    16 2   
    22     9    10 ar  
    23     9    14 ar  
    24    10    11 ar  
    25    10    27 1   
    26    11    12 ar  
    27    11    28 1   
    28    12    13 ar  
    29    12    29 1   
    30    13    14 ar  
    31    13    17 1   
    32    14    30 1   
@<TRIPOS>SUBSTRUCTURE
     1 0G5         1 TEMP              0 ****  ****    0 ROOT
