@<TRIPOS>MOLECULE
0G5
   32    32     1     0     0
SMALL
abcg2


@<TRIPOS>ATOM
      1 N2          -5.2100     2.1140     0.8860 n8         1 0G5      -0.986200
      2 N4          -1.1610    -1.3340    -0.0240 ns         1 0G5      -0.492900
      3 C11         -5.5160     1.1260    -0.1360 c3         1 0G5       0.020500
      4 C12         -7.0340     0.8490    -0.1870 c          1 0G5       0.725000
      5 C13         -4.7890    -0.2200     0.0320 c3         1 0G5      -0.099400
      6 C14         -3.2730    -0.1150    -0.0670 c3         1 0G5      -0.097400
      7 C15         -2.6010    -1.4700     0.0810 c3         1 0G5       0.095000
      8 C16         -0.3110    -2.3210     0.2880 c          1 0G5       0.603700
      9 C17          1.1460    -2.0020     0.1510 ca         1 0G5      -0.142600
     10 C18          2.0300    -3.0380    -0.1390 ca         1 0G5      -0.048000
     11 C19          3.3860    -2.7830    -0.2560 ca         1 0G5      -0.127000
     12 C20          3.8840    -1.5000    -0.0620 ca         1 0G5      -0.071000
     13 C21          2.9980    -0.4780     0.2460 ca         1 0G5       0.186000
     14 C22          1.6360    -0.7140     0.3530 ca         1 0G5      -0.058000
     15 O5          -7.6840     1.0410     0.8600 o          1 0G5      -0.729500
     16 O6          -0.6800    -3.4250     0.6690 o          1 0G5      -0.608100
     17 I            3.7360     1.4640     0.5760 i          1 0G5      -0.319000
     18 H2          -5.6340     1.8140     1.7560 hn         1 0G5       0.374500
     19 H5          -0.8090    -0.5130    -0.4900 hn         1 0G5       0.312500
     20 H13         -5.2180     1.5390    -1.1070 h1         1 0G5       0.042700
     21 H14         -5.0660    -0.6530     1.0000 hc         1 0G5       0.048200
     22 H15         -5.1470    -0.9110    -0.7360 hc         1 0G5       0.048200
     23 H16         -3.0040     0.3250    -1.0330 hc         1 0G5       0.031700
     24 H17         -2.8810     0.5530     0.7060 hc         1 0G5       0.031700
     25 H18         -2.9770    -2.1610    -0.6810 h1         1 0G5       0.053700
     26 H19         -2.8470    -1.9030     1.0520 h1         1 0G5       0.053700
     27 H20          1.6550    -4.0430    -0.2830 ha         1 0G5       0.138000
     28 H21          4.0700    -3.5860    -0.4950 ha         1 0G5       0.116000
     29 H22          4.9460    -1.3160    -0.1480 ha         1 0G5       0.122000
     30 H23          0.9650     0.0940     0.6170 ha         1 0G5       0.133000
     31 OXT         -7.4780     0.4080    -1.2660 o          1 0G5      -0.729500
     32 H1          -4.2120     2.1590     1.0500 hn         1 0G5       0.374500
@<TRIPOS>BOND
     1     1     3 1   
     2     1    18 1   
     3     1    32 1   
     4     2     7 1   
     5     2     8 1   
     6     2    19 1   
     7     3     4 1   
     8     3     5 1   
     9     3    20 1   
    10     4    15 1   
    11     4    31 1   
    12     5     6 1   
    13     5    21 1   
    14     5    22 1   
    15     6     7 1   
    16     6    23 1   
    17     6    24 1   
    18     7    25 1   
    19     7    26 1   
    20     8     9 1   
    21     8    16 2   
    22     9    10 ar  
    23     9    14 ar  
    24    10    11 ar  
    25    10    27 1   
    26    11    12 ar  
    27    11    28 1   
    28    12    13 ar  
    29    12    29 1   
    30    13    14 ar  
    31    13    17 1   
    32    14    30 1   
@<TRIPOS>SUBSTRUCTURE
     1 0G5         1 TEMP              0 ****  ****    0 ROOT
