@<TRIPOS>MOLECULE
0G6
   65    66     1     0     0
SMALL
bcc


@<TRIPOS>ATOM
      1 N           20.9910    10.8000    12.2570 n8         1 0G6      -0.881800
      2 CA          21.1670    10.8620    13.6900 c3         1 0G6       0.096500
      3 C           20.1200     9.9890    14.3640 c          1 0G6       0.691100
      4 O           19.7310     8.9520    13.8410 o          1 0G6      -0.646100
      5 CB          22.5530    10.4000    14.2050 c3         1 0G6      -0.069100
      6 CG          23.6490    11.3110    13.7350 ca         1 0G6      -0.097300
      7 CD1         23.9250    12.4870    14.4300 ca         1 0G6      -0.128500
      8 CD2         24.3790    11.0340    12.5810 ca         1 0G6      -0.128500
      9 CE1         24.9050    13.3630    13.9880 ca         1 0G6      -0.120500
     10 CE2         25.3630    11.9090    12.1350 ca         1 0G6      -0.120500
     11 CZ          25.6290    13.0760    12.8370 ca         1 0G6      -0.118000
     12 N1          19.7010    10.3590    15.5870 n          1 0G6      -0.461800
     13 CA1         18.8190     9.4920    16.3410 c5         1 0G6       0.031700
     14 C1          17.4270     9.4540    15.7180 c          1 0G6       0.665100
     15 O1          16.9240    10.4490    15.2200 o          1 0G6      -0.593100
     16 CB1         18.7810    10.1490    17.7290 c5         1 0G6      -0.082400
     17 CG1         19.0120    11.6260    17.4370 c5         1 0G6      -0.093400
     18 CD          20.0050    11.6080    16.2810 c5         1 0G6       0.108000
     19 N2          16.8040     8.2690    15.8250 ns         1 0G6      -0.574900
     20 CA2         15.4520     8.0190    15.3800 c3         1 0G6       0.113700
     21 C2          14.6010     7.4280    16.5120 c3         1 0G6       0.133100
     22 O2          13.2700     7.4910    16.0590 oh         1 0G6      -0.595800
     23 CB2         15.4370     7.1270    14.1400 c3         1 0G6      -0.082400
     24 CG2         16.1450     7.7550    12.9480 c3         1 0G6      -0.099400
     25 CD3         16.0260     6.8670    11.7210 c3         1 0G6       0.033300
     26 NE          16.7700     7.4400    10.6100 nu         1 0G6      -0.398100
     27 CZ1         16.8910     6.8730     9.4170 cz         1 0G6       0.528300
     28 NH1         16.2620     5.7380     9.1440 nv         1 0G6      -0.515200
     29 NH2         17.6560     7.4400     8.4900 nv         1 0G6      -0.515200
     30 C3          14.7190     8.2120    17.8220 c3         1 0G6       0.019000
     31 CL          16.0940     7.6460    18.8360 cl         1 0G6      -0.203400
     32 H           21.6710    11.4010    11.8080 hn         1 0G6       0.351300
     33 H2          21.1760     9.8610    11.9240 hn         1 0G6       0.351300
     34 HA          21.0330    11.9040    13.9880 h1         1 0G6       0.080700
     35 HB2         22.5510    10.3720    15.2990 hc         1 0G6       0.060200
     36 HB3         22.7270     9.3780    13.8600 hc         1 0G6       0.060200
     37 HD1         23.3680    12.7180    15.3320 ha         1 0G6       0.125000
     38 HD2         24.1840    10.1210    12.0320 ha         1 0G6       0.125000
     39 HE1         25.1090    14.2690    14.5450 ha         1 0G6       0.136500
     40 HE2         25.9240    11.6740    11.2390 ha         1 0G6       0.136500
     41 HZ          26.3970    13.7560    12.4920 ha         1 0G6       0.139000
     42 HA1         19.2330     8.4820    16.3990 h1         1 0G6       0.074700
     43 HB21        17.8530     9.9480    18.2620 hc         1 0G6       0.066200
     44 HB31        19.5980     9.7470    18.3310 hc         1 0G6       0.066200
     45 HG2         18.0840    12.1080    17.1300 hc         1 0G6       0.069700
     46 HG3         19.4010    12.1700    18.2970 hc         1 0G6       0.069700
     47 HD21        21.0350    11.6090    16.6470 h1         1 0G6       0.053200
     48 HD3         19.8800    12.4700    15.6260 h1         1 0G6       0.053200
     49 H1          17.3280     7.4850    16.1830 hn         1 0G6       0.321500
     50 HA2         15.0210     8.9920    15.1300 h1         1 0G6       0.101700
     51 HB22        15.9050     6.1670    14.3850 hc         1 0G6       0.054200
     52 HB32        14.4000     6.9100    13.8750 hc         1 0G6       0.054200
     53 HG21        15.7090     8.7340    12.7300 hc         1 0G6       0.080700
     54 HG31        17.2020     7.9160    13.1760 hc         1 0G6       0.080700
     55 HD22        16.4140     5.8700    11.9480 h1         1 0G6       0.060700
     56 HD31        14.9730     6.7600    11.4480 h1         1 0G6       0.060700
     57 HE          17.2700     8.3000    10.7720 hn         1 0G6       0.333700
     58 HH11        16.3530     5.3010     8.2420 hn         1 0G6       0.327450
     59 HH12        15.6460     5.2940     9.8030 hn         1 0G6       0.327450
     60 HH21        17.7160     7.0620     7.5600 hn         1 0G6       0.327450
     61 HH22        18.1340     8.3070     8.6670 hn         1 0G6       0.327450
     62 H11         14.8530     9.2800    17.6550 h1         1 0G6       0.081700
     63 H21         13.8260     8.0620    18.4270 h1         1 0G6       0.081700
     64 H33         14.9080     6.3890    16.6950 h1         1 0G6       0.046700
     65 H34         12.7290     6.9050    16.5970 ho         1 0G6       0.420000
@<TRIPOS>BOND
     1     1     2 1   
     2     1    32 1   
     3     1    33 1   
     4     2     3 1   
     5     2     5 1   
     6     2    34 1   
     7     3     4 2   
     8     3    12 1   
     9     5     6 1   
    10     5    35 1   
    11     5    36 1   
    12     6     7 ar  
    13     6     8 ar  
    14     7     9 ar  
    15     7    37 1   
    16     8    10 ar  
    17     8    38 1   
    18     9    11 ar  
    19     9    39 1   
    20    10    11 ar  
    21    10    40 1   
    22    11    41 1   
    23    12    13 1   
    24    12    18 1   
    25    13    14 1   
    26    13    16 1   
    27    13    42 1   
    28    14    15 2   
    29    14    19 1   
    30    16    17 1   
    31    16    43 1   
    32    16    44 1   
    33    17    18 1   
    34    17    45 1   
    35    17    46 1   
    36    18    47 1   
    37    18    48 1   
    38    19    20 1   
    39    19    49 1   
    40    20    21 1   
    41    20    23 1   
    42    20    50 1   
    43    21    22 1   
    44    21    30 1   
    45    21    64 1   
    46    22    65 1   
    47    23    24 1   
    48    23    51 1   
    49    23    52 1   
    50    24    25 1   
    51    24    53 1   
    52    24    54 1   
    53    25    26 1   
    54    25    55 1   
    55    25    56 1   
    56    26    27 2   
    57    26    57 1   
    58    27    28 1   
    59    27    29 1   
    60    28    58 1   
    61    28    59 1   
    62    29    60 1   
    63    29    61 1   
    64    30    31 1   
    65    30    62 1   
    66    30    63 1   
@<TRIPOS>SUBSTRUCTURE
     1 0G6         1 TEMP              0 ****  ****    0 ROOT
