@<TRIPOS>MOLECULE
0G7
   62    63     1     0     0
SMALL
abcg2


@<TRIPOS>ATOM
      1 N           -3.8880    -0.8730     2.0180 n8         1 0G7      -0.982200
      2 CA          -3.6740    -0.4540     0.6560 c3         1 0G7       0.103500
      3 C           -2.2090    -0.5270     0.2130 c          1 0G7       0.567100
      4 O           -1.4160    -1.2780     0.7670 o          1 0G7      -0.616100
      5 CB          -4.5110    -1.3190    -0.3050 c3         1 0G7      -0.024100
      6 CG          -5.9850    -1.1550    -0.0780 ca         1 0G7      -0.070300
      7 CD1         -6.6800    -0.1290    -0.7160 ca         1 0G7      -0.097000
      8 CD2         -6.6840    -1.9930     0.7860 ca         1 0G7      -0.097000
      9 CE1         -8.0390     0.0570    -0.4970 ca         1 0G7      -0.111000
     10 CE2         -8.0430    -1.8150     1.0060 ca         1 0G7      -0.111000
     11 CZ          -8.7250    -0.7870     0.3670 ca         1 0G7      -0.110000
     12 N1          -1.8360     0.2260    -0.8370 n          1 0G7      -0.394800
     13 CA1         -0.4730     0.1600    -1.3140 c5         1 0G7       0.031700
     14 C1           0.4890     0.7500    -0.2930 c          1 0G7       0.599100
     15 O1           0.1580     1.6000     0.5170 o          1 0G7      -0.599100
     16 CB1         -0.4960     1.0180    -2.5880 c5         1 0G7      -0.085400
     17 CG1         -1.5970     2.0340    -2.3140 c5         1 0G7      -0.094400
     18 CD          -2.6330     1.2320    -1.5340 c5         1 0G7       0.109000
     19 N2           1.7550     0.3140    -0.3970 ns         1 0G7      -0.493900
     20 CA2          2.8040     0.9210     0.3780 c3         1 0G7       0.017700
     21 C2           2.8720     2.4200     0.0940 c          1 0G7       0.561100
     22 O2           2.7190     2.8740    -1.0070 o          1 0G7      -0.482100
     23 CB2          4.1570     0.2940     0.0360 c3         1 0G7      -0.087400
     24 CG2          4.2330    -1.1810     0.4110 c3         1 0G7      -0.091400
     25 CD3          5.5930    -1.7700     0.0670 c3         1 0G7       0.226800
     26 NE           5.6330    -3.1680     0.4240 nu         1 0G7      -0.920400
     27 CZ1          6.6050    -4.0530     0.0460 c2         1 0G7       0.806100
     28 NH1          7.4290    -3.6280    -0.9710 nv         1 0G7      -1.072200
     29 NH2          6.6280    -5.2180     0.5890 n2         1 0G7      -0.903100
     30 C3           3.1750     3.2540     1.3110 c3         1 0G7       0.003600
     31 CL1          3.4810     4.9530     0.9120 cl         1 0G7      -0.230000
     32 HN          -3.4900    -1.7940     2.1640 hn         1 0G7       0.410000
     33 HNA         -3.4000    -0.2530     2.6520 hn         1 0G7       0.410000
     34 HA          -4.0210     0.5790     0.5740 h1         1 0G7       0.075700
     35 HB          -4.2740    -1.0560    -1.3380 hc         1 0G7       0.052700
     36 HBA         -4.2160    -2.3650    -0.1780 hc         1 0G7       0.052700
     37 HD1         -6.1520     0.5310    -1.3960 ha         1 0G7       0.107500
     38 HD2         -6.1610    -2.7990     1.2860 ha         1 0G7       0.107500
     39 HE1         -8.5620     0.8580    -1.0030 ha         1 0G7       0.110500
     40 HE2         -8.5720    -2.4790     1.6780 ha         1 0G7       0.110500
     41 HZ          -9.7850    -0.6470     0.5380 ha         1 0G7       0.110000
     42 HA1         -0.1850    -0.8710    -1.5380 h1         1 0G7       0.079700
     43 HB1          0.4720     1.4710    -2.8030 hc         1 0G7       0.062200
     44 HB1A        -0.7580     0.3860    -3.4380 hc         1 0G7       0.062200
     45 HG1         -2.0150     2.4580    -3.2250 hc         1 0G7       0.066200
     46 H31         -1.2200     2.8580    -1.7050 hc         1 0G7       0.066200
     47 HD          -3.3520     0.7580    -2.2100 h1         1 0G7       0.049700
     48 H29         -3.1910     1.8580    -0.8390 h1         1 0G7       0.049700
     49 HN2          1.9980    -0.3390    -1.1250 hn         1 0G7       0.325500
     50 HA2          2.6120     0.7710     1.4460 h1         1 0G7       0.079700
     51 HB2          4.3520     0.4260    -1.0320 hc         1 0G7       0.056200
     52 HB2A         4.9410     0.8410     0.5670 hc         1 0G7       0.056200
     53 HG2          4.0410    -1.2930     1.4830 hc         1 0G7       0.058200
     54 HG2A         3.4620    -1.7540    -0.1110 hc         1 0G7       0.058200
     55 HD3          6.3790    -1.1880     0.5660 h1         1 0G7       0.033700
     56 HD3A         5.7520    -1.6660    -1.0090 h1         1 0G7       0.033700
     57 HNE          5.1800    -3.4200     1.2890 hn         1 0G7       0.497000
     58 HNH1         7.6750    -2.6510    -1.0030 hn         1 0G7       0.453000
     59 HNHA         8.2260    -4.2190    -1.1430 hn         1 0G7       0.453000
     60 HNH2         7.3860    -5.7720     0.2100 hn         1 0G7       0.380400
     61 H3           2.3190     3.1970     1.9860 h1         1 0G7       0.090200
     62 H3A          4.0380     2.8550     1.8460 h1         1 0G7       0.090200
@<TRIPOS>BOND
     1     1     2 1   
     2     1    32 1   
     3     1    33 1   
     4     2     3 1   
     5     2     5 1   
     6     2    34 1   
     7     3     4 2   
     8     3    12 1   
     9     5     6 1   
    10     5    35 1   
    11     5    36 1   
    12     6     7 ar  
    13     6     8 ar  
    14     7     9 ar  
    15     7    37 1   
    16     8    10 ar  
    17     8    38 1   
    18     9    11 ar  
    19     9    39 1   
    20    10    11 ar  
    21    10    40 1   
    22    11    41 1   
    23    12    13 1   
    24    12    18 1   
    25    13    14 1   
    26    13    16 1   
    27    13    42 1   
    28    14    15 2   
    29    14    19 1   
    30    16    17 1   
    31    16    43 1   
    32    16    44 1   
    33    17    18 1   
    34    17    45 1   
    35    17    46 1   
    36    18    47 1   
    37    18    48 1   
    38    19    20 1   
    39    19    49 1   
    40    20    21 1   
    41    20    23 1   
    42    20    50 1   
    43    21    22 2   
    44    21    30 1   
    45    23    24 1   
    46    23    51 1   
    47    23    52 1   
    48    24    25 1   
    49    24    53 1   
    50    24    54 1   
    51    25    26 1   
    52    25    55 1   
    53    25    56 1   
    54    26    27 1   
    55    26    57 1   
    56    27    28 1   
    57    27    29 2   
    58    28    58 1   
    59    28    59 1   
    60    29    60 1   
    61    30    31 1   
    62    30    61 1   
    63    30    62 1   
@<TRIPOS>SUBSTRUCTURE
     1 0G7         1 TEMP              0 ****  ****    0 ROOT
