@<TRIPOS>MOLECULE
0G7
   62    63     1     0     0
SMALL
No Charge or Current Charge


@<TRIPOS>ATOM
      1 N           -2.8580    -2.6790     0.9540 n8         1 0G7      -0.982200
      2 CA          -2.9860    -1.4170     0.1400 c3         1 0G7       0.103500
      3 C           -1.6300    -0.8530    -0.4390 c          1 0G7       0.567100
      4 O           -0.6630    -1.5900    -0.6070 o          1 0G7      -0.616100
      5 CB          -4.0290    -1.6050    -0.9960 c3         1 0G7      -0.024100
      6 CG          -5.4600    -1.7680    -0.4880 ca         1 0G7      -0.070300
      7 CD1         -6.1620    -0.6540     0.0150 ca         1 0G7      -0.097000
      8 CD2         -6.0990    -3.0230    -0.5320 ca         1 0G7      -0.097000
      9 CE1         -7.4830    -0.7950     0.4740 ca         1 0G7      -0.111000
     10 CE2         -7.4200    -3.1640    -0.0730 ca         1 0G7      -0.111000
     11 CZ          -8.1130    -2.0500     0.4310 ca         1 0G7      -0.110000
     12 N1          -1.5370     0.5170    -0.7750 n          1 0G7      -0.394800
     13 CA1         -0.2980     1.1070    -1.3570 c5         1 0G7       0.031700
     14 C1           0.8600     1.3150    -0.3270 c          1 0G7       0.599100
     15 O1           0.7980     1.2420     0.8940 o          1 0G7      -0.599100
     16 CB1         -0.8340     2.4870    -1.8450 c5         1 0G7      -0.085400
     17 CG1         -1.8430     2.8580    -0.7300 c5         1 0G7      -0.094400
     18 CD          -2.5980     1.5210    -0.5170 c5         1 0G7       0.109000
     19 N2           2.0300     1.5930    -1.0090 ns         1 0G7      -0.493900
     20 CA2          3.3460     1.8490    -0.3760 c3         1 0G7       0.017700
     21 C2           4.0620     3.0450    -1.0720 c          1 0G7       0.561100
     22 O2           3.7090     3.4640    -2.1720 o          1 0G7      -0.482100
     23 CB2          4.2350     0.5760    -0.3520 c3         1 0G7      -0.087400
     24 CG2          3.6310    -0.6170     0.4300 c3         1 0G7      -0.091400
     25 CD3          4.5810    -1.8290     0.4990 c3         1 0G7       0.226800
     26 NE           3.9660    -2.9230     1.2580 nu         1 0G7      -0.920400
     27 CZ1          4.5890    -4.0540     1.4410 c2         1 0G7       0.806100
     28 NH1          4.0440    -4.7850     0.5270 nv         1 0G7      -1.072200
     29 NH2          4.6010    -4.4320     2.6150 n2         1 0G7      -0.903100
     30 C3           5.2260     3.6800    -0.2910 c3         1 0G7       0.003600
     31 Cl1          5.6460     5.3820    -0.8130 cl         1 0G7      -0.230000
     32 HN          -2.3640    -3.3800     0.3870 hn         1 0G7       0.410000
     33 HNA         -2.2000    -2.5140     1.7260 hn         1 0G7       0.410000
     34 HA          -3.3740    -0.6470     0.8190 h1         1 0G7       0.075700
     35 HB          -3.9930    -0.7440    -1.6720 hc         1 0G7       0.052700
     36 HBA         -3.7370    -2.4660    -1.6110 hc         1 0G7       0.052700
     37 HD1         -5.6840     0.3230     0.0500 ha         1 0G7       0.107500
     38 HD2         -5.5710    -3.8920    -0.9190 ha         1 0G7       0.107500
     39 HE1         -8.0180     0.0690     0.8620 ha         1 0G7       0.110500
     40 HE2         -7.9070    -4.1360    -0.1080 ha         1 0G7       0.110500
     41 HZ          -9.1350    -2.1590     0.7860 ha         1 0G7       0.110000
     42 HA1          0.0820     0.5040    -2.1920 h1         1 0G7       0.079700
     43 HB1         -0.0470     3.2400    -1.9730 hc         1 0G7       0.062200
     44 HB1A        -1.3420     2.3880    -2.8120 hc         1 0G7       0.062200
     45 HG1         -2.5160     3.6750    -1.0180 hc         1 0G7       0.066200
     46 H31         -1.3280     3.1710     0.1870 hc         1 0G7       0.066200
     47 HD          -3.4190     1.4140    -1.2370 h1         1 0G7       0.049700
     48 H29         -3.0090     1.4550     0.4990 h1         1 0G7       0.049700
     49 HN2          1.9660     1.6490    -2.0200 hn         1 0G7       0.325500
     50 HA2          3.1750     2.1640     0.6630 h1         1 0G7       0.079700
     51 HB2          4.4400     0.2610    -1.3830 hc         1 0G7       0.056200
     52 HB2A         5.2040     0.8250     0.0980 hc         1 0G7       0.056200
     53 HG2          3.3860    -0.2920     1.4490 hc         1 0G7       0.058200
     54 HG2A         2.6930    -0.9310    -0.0440 hc         1 0G7       0.058200
     55 HD3          5.5220    -1.5260     0.9780 h1         1 0G7       0.033700
     56 HD3A         4.8140    -2.1630    -0.5220 h1         1 0G7       0.033700
     57 HNE          3.6240    -2.6440     2.1690 hn         1 0G7       0.497000
     58 HNH1         3.3920    -4.1670     0.0690 hn         1 0G7       0.453000
     59 HNHA         4.7330    -5.1460    -0.1160 hn         1 0G7       0.453000
     60 HNH2         4.5450    -5.4550     2.5630 hn         1 0G7       0.380400
     61 H3           4.9640     3.7130     0.7730 h1         1 0G7       0.090200
     62 H3A          6.1170     3.0540    -0.4180 h1         1 0G7       0.090200
@<TRIPOS>BOND
     1     1     2 1   
     2     1    32 1   
     3     1    33 1   
     4     2     3 1   
     5     2     5 1   
     6     2    34 1   
     7     3     4 2   
     8     3    12 1   
     9     5     6 1   
    10     5    35 1   
    11     5    36 1   
    12     6     7 ar  
    13     6     8 ar  
    14     7     9 ar  
    15     7    37 1   
    16     8    10 ar  
    17     8    38 1   
    18     9    11 ar  
    19     9    39 1   
    20    10    11 ar  
    21    10    40 1   
    22    11    41 1   
    23    12    13 1   
    24    12    18 1   
    25    13    14 1   
    26    13    16 1   
    27    13    42 1   
    28    14    15 2   
    29    14    19 1   
    30    16    17 1   
    31    16    43 1   
    32    16    44 1   
    33    17    18 1   
    34    17    45 1   
    35    17    46 1   
    36    18    47 1   
    37    18    48 1   
    38    19    20 1   
    39    19    49 1   
    40    20    21 1   
    41    20    23 1   
    42    20    50 1   
    43    21    22 2   
    44    21    30 1   
    45    23    24 1   
    46    23    51 1   
    47    23    52 1   
    48    24    25 1   
    49    24    53 1   
    50    24    54 1   
    51    25    26 1   
    52    25    55 1   
    53    25    56 1   
    54    26    27 1   
    55    26    57 1   
    56    27    28 1   
    57    27    29 2   
    58    28    58 1   
    59    28    59 1   
    60    29    60 1   
    61    30    31 1   
    62    30    61 1   
    63    30    62 1   
@<TRIPOS>SUBSTRUCTURE
     1 0G7         1 TEMP              0 ****  ****    0 ROOT
