@<TRIPOS>MOLECULE
0GA
   25    25     1     0     0
SMALL
No Charge or Current Charge


@<TRIPOS>ATOM
      1 OAD          3.5750     1.1940     2.1270 o          1 0GA      -0.715000
      2 CAL          3.8460     0.5420     1.1250 c          1 0GA       0.698200
      3 OAB          4.9950     0.4350     0.7120 o          1 0GA      -0.715000
      4 CAN          2.7140    -0.1590     0.3630 ce         1 0GA       0.020900
      5 CAG          2.9450    -0.9330    -0.7360 c2         1 0GA      -0.320200
      6 CAA          1.9430    -1.7490    -1.5300 c3         1 0GA      -0.026900
      7 OAK          1.4480    -0.0230     0.9250 os         1 0GA      -0.250200
      8 CAP          0.3170     0.2680     0.1840 ca         1 0GA       0.104100
      9 CAI          0.3850     1.2040    -0.8650 ca         1 0GA      -0.143000
     10 CAH         -0.7660     1.5090    -1.6050 ca         1 0GA      -0.190000
     11 CAJ         -1.9900     0.8930    -1.2990 ca         1 0GA      -0.075000
     12 CAO         -0.9220    -0.3450     0.5040 ca         1 0GA       0.193100
     13 OAF         -0.9990    -1.2400     1.5330 oh         1 0GA      -0.612100
     14 CAQ         -2.0900    -0.0420    -0.2390 ca         1 0GA      -0.270600
     15 CAM         -3.4260    -0.6890     0.0760 c          1 0GA       0.728600
     16 OAC         -4.3980    -0.3910    -0.6000 o          1 0GA      -0.723500
     17 OAE         -3.4770    -1.4890     1.0010 o          1 0GA      -0.723500
     18 H2           3.9630    -1.0280    -1.1160 ha         1 0GA       0.180000
     19 H3           2.4500    -2.5190    -2.1240 hc         1 0GA       0.010700
     20 H4           1.2300    -2.2590    -0.8710 hc         1 0GA       0.010700
     21 H5           1.3760    -1.1170    -2.2240 hc         1 0GA       0.010700
     22 H6           1.3270     1.6910    -1.1060 ha         1 0GA       0.104000
     23 H7          -0.7120     2.2290    -2.4180 ha         1 0GA       0.071000
     24 H8          -2.8650     1.1510    -1.8920 ha         1 0GA       0.100000
     25 H9          -1.9620    -1.5170     1.5390 ho         1 0GA       0.534000
@<TRIPOS>BOND
     1     1     2 1   
     2     2     3 1   
     3     2     4 1   
     4     4     5 2   
     5     4     7 1   
     6     5     6 1   
     7     5    18 1   
     8     6    19 1   
     9     6    20 1   
    10     6    21 1   
    11     7     8 1   
    12     8     9 ar  
    13     8    12 ar  
    14     9    10 ar  
    15     9    22 1   
    16    10    11 ar  
    17    10    23 1   
    18    11    14 ar  
    19    11    24 1   
    20    12    13 1   
    21    12    14 ar  
    22    13    25 1   
    23    14    15 1   
    24    15    16 1   
    25    15    17 1   
@<TRIPOS>SUBSTRUCTURE
     1 0GA         1 TEMP              0 ****  ****    0 ROOT
