@<TRIPOS>MOLECULE
0GA
   25    25     1     0     0
SMALL
bcc


@<TRIPOS>ATOM
      1 OAD          1.9970     1.0920     1.7370 o          1 0GA      -0.820300
      2 CAL          2.8610     0.7100     0.9290 c          1 0GA       0.908800
      3 OAB          4.0090     1.1670     0.7700 o          1 0GA      -0.820300
      4 CAN          2.4740    -0.4690     0.0420 ce         1 0GA       0.020900
      5 CAG          3.3250    -1.1090    -0.7560 c2         1 0GA      -0.270200
      6 CAA          3.0230    -2.2850    -1.6220 c3         1 0GA      -0.026900
      7 OAK          1.1880    -0.9360     0.1730 os         1 0GA      -0.250200
      8 CAP          0.1650    -0.1260    -0.2010 ca         1 0GA       0.104100
      9 CAI          0.2860     0.9040    -1.1130 ca         1 0GA      -0.161000
     10 CAH         -0.8310     1.6570    -1.4780 ca         1 0GA      -0.208000
     11 CAJ         -2.0670     1.3630    -0.9380 ca         1 0GA      -0.093000
     12 CAO         -1.0910    -0.4320     0.3550 ca         1 0GA       0.193100
     13 OAF         -1.1810    -1.4350     1.2270 oh         1 0GA      -0.573100
     14 CAQ         -2.2120     0.3170    -0.0240 ca         1 0GA      -0.270600
     15 CAM         -3.5590    -0.0140     0.5660 c          1 0GA       0.939200
     16 OAC         -4.5460     0.6430     0.2270 o          1 0GA      -0.828800
     17 OAE         -3.5770    -0.9790     1.3950 o          1 0GA      -0.828800
     18 H2           4.3450    -0.7470    -0.7570 ha         1 0GA       0.130000
     19 H3           3.3190    -2.0870    -2.6550 hc         1 0GA       0.010700
     20 H4           3.5950    -3.1590    -1.3020 hc         1 0GA       0.010700
     21 H5           1.9690    -2.5550    -1.6180 hc         1 0GA       0.010700
     22 H6           1.2510     1.1270    -1.5510 ha         1 0GA       0.122000
     23 H7          -0.7210     2.4650    -2.1890 ha         1 0GA       0.089000
     24 H8          -2.9370     1.9410    -1.2190 ha         1 0GA       0.118000
     25 H9          -2.1790    -1.4360     1.4660 ho         1 0GA       0.495000
@<TRIPOS>BOND
     1     1     2 1   
     2     2     3 1   
     3     2     4 1   
     4     4     5 2   
     5     4     7 1   
     6     5     6 1   
     7     5    18 1   
     8     6    19 1   
     9     6    20 1   
    10     6    21 1   
    11     7     8 1   
    12     8     9 ar  
    13     8    12 ar  
    14     9    10 ar  
    15     9    22 1   
    16    10    11 ar  
    17    10    23 1   
    18    11    14 ar  
    19    11    24 1   
    20    12    13 1   
    21    12    14 ar  
    22    13    25 1   
    23    14    15 1   
    24    15    16 1   
    25    15    17 1   
@<TRIPOS>SUBSTRUCTURE
     1 0GA         1 TEMP              0 ****  ****    0 ROOT
