@<TRIPOS>MOLECULE
0GD
   47    49     1     0     0
SMALL
abcg2


@<TRIPOS>ATOM
      1 C08         -7.2260     2.2170    -1.5690 c3         1 0GD      -0.053800
      2 C04         -6.6240     1.1000    -0.7730 ca         1 0GD      -0.001300
      3 C05         -5.2390     1.0320    -0.5880 ca         1 0GD      -0.208000
      4 C03         -7.4080     0.1080    -0.2220 ca         1 0GD      -0.230000
      5 C02         -6.7860    -0.9310     0.4920 ca         1 0GD       0.602900
      6 N07         -7.5300    -1.9110     1.0840 nv         1 0GD      -1.055900
      7 N01         -5.4720    -0.9850     0.6640 nb         1 0GD      -0.753000
      8 C06         -4.7090    -0.0210     0.1410 cp         1 0GD       0.456500
      9 C09         -3.2520    -0.1500     0.3690 cp         1 0GD      -0.144500
     10 C10         -2.6920    -1.3910     0.6690 ca         1 0GD      -0.085000
     11 C11         -1.3260    -1.5270     0.8670 ca         1 0GD      -0.108000
     12 C14         -2.3960     0.9520     0.2930 ca         1 0GD      -0.085000
     13 C13         -1.0340     0.8150     0.5000 ca         1 0GD      -0.108000
     14 C12         -0.4750    -0.4290     0.7910 ca         1 0GD      -0.082300
     15 C15          1.0020    -0.5750     1.0370 c3         1 0GD       0.206100
     16 N16          1.7820     0.1880     0.0840 n7         1 0GD      -0.865400
     17 C17          3.2090     0.0770     0.3080 c3         1 0GD       0.160800
     18 C18          3.9820     0.9260    -0.6980 c3         1 0GD      -0.037100
     19 C19          5.4650     0.8220    -0.4800 ca         1 0GD      -0.052300
     20 C20          6.1830    -0.2270    -1.0500 ca         1 0GD      -0.152000
     21 C21          7.5370    -0.3330    -0.8020 ca         1 0GD       0.171000
     22 F25          8.2160    -1.3500    -1.3630 f          1 0GD      -0.182000
     23 C22          8.2200     0.5650    -0.0040 ca         1 0GD      -0.152000
     24 C23          7.4990     1.6080     0.5610 ca         1 0GD      -0.083000
     25 C24          6.1370     1.7360     0.3280 ca         1 0GD      -0.123000
     26 H081        -6.9410     2.1390    -2.6200 hc         1 0GD       0.046700
     27 H082        -8.3140     2.2100    -1.5160 hc         1 0GD       0.046700
     28 H083        -6.8730     3.1850    -1.2130 hc         1 0GD       0.046700
     29 H05         -4.6020     1.7840    -1.0340 ha         1 0GD       0.123000
     30 H03         -8.4850     0.1210    -0.3380 ha         1 0GD       0.119000
     31 H071        -8.4570    -2.0730     0.7280 hn         1 0GD       0.468500
     32 H072        -7.0350    -2.7490     1.3410 hn         1 0GD       0.468500
     33 H10         -3.3320    -2.2610     0.7340 ha         1 0GD       0.121500
     34 H14         -2.7910     1.9380     0.0880 ha         1 0GD       0.121500
     35 H11         -0.9180    -2.5070     1.0840 ha         1 0GD       0.118500
     36 H13         -0.3940     1.6850     0.4380 ha         1 0GD       0.118500
     37 H151         1.2380    -0.1990     2.0390 h1         1 0GD       0.038200
     38 H152         1.2610    -1.6450     1.0500 h1         1 0GD       0.038200
     39 H16          1.5680    -0.1400    -0.8510 hn         1 0GD       0.411000
     40 H171         3.4290     0.4290     1.3210 h1         1 0GD       0.034200
     41 H172         3.5690    -0.9640     0.2590 h1         1 0GD       0.034200
     42 H181         3.7330     0.5990    -1.7110 hc         1 0GD       0.056700
     43 H182         3.6600     1.9660    -0.6080 hc         1 0GD       0.056700
     44 H20          5.6900    -0.9530    -1.6860 ha         1 0GD       0.129000
     45 H24          5.5910     2.5580     0.7750 ha         1 0GD       0.119000
     46 H22          9.2820     0.4540     0.1690 ha         1 0GD       0.132000
     47 H23          8.0100     2.3280     1.1870 ha         1 0GD       0.117000
@<TRIPOS>BOND
     1     1     2 1   
     2     1    26 1   
     3     1    27 1   
     4     1    28 1   
     5     2     3 ar  
     6     2     4 ar  
     7     3     8 ar  
     8     3    29 1   
     9     4     5 ar  
    10     4    30 1   
    11     5     6 1   
    12     5     7 ar  
    13     6    31 1   
    14     6    32 1   
    15     7     8 ar  
    16     8     9 1   
    17     9    10 ar  
    18     9    12 ar  
    19    10    11 ar  
    20    10    33 1   
    21    11    14 ar  
    22    11    35 1   
    23    12    13 ar  
    24    12    34 1   
    25    13    14 ar  
    26    13    36 1   
    27    14    15 1   
    28    15    16 1   
    29    15    37 1   
    30    15    38 1   
    31    16    17 1   
    32    16    39 1   
    33    17    18 1   
    34    17    40 1   
    35    17    41 1   
    36    18    19 1   
    37    18    42 1   
    38    18    43 1   
    39    19    20 ar  
    40    19    25 ar  
    41    20    21 ar  
    42    20    44 1   
    43    21    22 1   
    44    21    23 ar  
    45    23    24 ar  
    46    23    46 1   
    47    24    25 ar  
    48    24    47 1   
    49    25    45 1   
@<TRIPOS>SUBSTRUCTURE
     1 0GD         1 TEMP              0 ****  ****    0 ROOT
