@<TRIPOS>MOLECULE
0GD
   47    49     1     0     0
SMALL
No Charge or Current Charge


@<TRIPOS>ATOM
      1 C08         -7.4790     2.3650    -1.2420 c3         1 0GD      -0.053800
      2 C04         -6.7710     1.1360    -0.6970 ca         1 0GD      -0.001300
      3 C05         -5.4000     1.1590    -0.3920 ca         1 0GD      -0.208000
      4 C03         -7.4550    -0.0690    -0.4900 ca         1 0GD      -0.230000
      5 C02         -6.7370    -1.1600     0.0020 ca         1 0GD       0.602900
      6 N07         -7.2790    -2.3590     0.2260 nv         1 0GD      -1.055900
      7 N01         -5.4470    -1.1550     0.2910 nb         1 0GD      -0.753000
      8 C06         -4.7590    -0.0040     0.1120 cp         1 0GD       0.456500
      9 C09         -3.2900    -0.0280     0.4560 cp         1 0GD      -0.144500
     10 C10         -2.5510    -1.2430     0.4690 ca         1 0GD      -0.085000
     11 C11         -1.1820    -1.2660     0.7870 ca         1 0GD      -0.108000
     12 C14         -2.5860     1.1620     0.7870 ca         1 0GD      -0.085000
     13 C13         -1.2170     1.1380     1.1050 ca         1 0GD      -0.108000
     14 C12         -0.5050    -0.0750     1.1070 ca         1 0GD      -0.082300
     15 C15          0.9770    -0.0980     1.4570 c3         1 0GD       0.206100
     16 N16          1.7940     0.2160     0.2710 n7         1 0GD      -0.865400
     17 C17          3.2530     0.1780     0.4870 c3         1 0GD       0.160800
     18 C18          4.0040     0.5450    -0.8080 c3         1 0GD      -0.037100
     19 C19          5.5150     0.5200    -0.6170 ca         1 0GD      -0.052300
     20 C20          6.2460    -0.6540    -0.8830 ca         1 0GD      -0.152000
     21 C21          7.6380    -0.6730    -0.7010 ca         1 0GD       0.171000
     22 F25          8.3330    -1.8020    -0.9580 f          1 0GD      -0.182000
     23 C22          8.3120     0.4730    -0.2520 ca         1 0GD      -0.152000
     24 C23          7.5880     1.6480     0.0170 ca         1 0GD      -0.083000
     25 C24          6.1940     1.6690    -0.1650 ca         1 0GD      -0.123000
     26 H081        -7.3690     2.4270    -2.3310 hc         1 0GD       0.046700
     27 H082        -8.5510     2.3430    -1.0140 hc         1 0GD       0.046700
     28 H083        -7.0680     3.2850    -0.8100 hc         1 0GD       0.046700
     29 H05         -4.8330     2.0680    -0.5590 ha         1 0GD       0.123000
     30 H03         -8.5150    -0.1580    -0.7070 ha         1 0GD       0.119000
     31 H071        -8.1360    -2.5820    -0.2670 hn         1 0GD       0.468500
     32 H072        -6.6160    -3.1140     0.3540 hn         1 0GD       0.468500
     33 H10         -3.0420    -2.1820     0.2220 ha         1 0GD       0.121500
     34 H14         -3.1020     2.1180     0.8150 ha         1 0GD       0.121500
     35 H11         -0.6470    -2.2130     0.7830 ha         1 0GD       0.118500
     36 H13         -0.7060     2.0650     1.3540 ha         1 0GD       0.118500
     37 H151         1.1680     0.6290     2.2580 h1         1 0GD       0.038200
     38 H152         1.2380    -1.0910     1.8500 h1         1 0GD       0.038200
     39 H16          1.5570    -0.4670    -0.4580 hn         1 0GD       0.411000
     40 H171         3.5400     0.8860     1.2770 h1         1 0GD       0.034200
     41 H172         3.5660    -0.8250     0.8090 h1         1 0GD       0.034200
     42 H181         3.7130    -0.1510    -1.6040 hc         1 0GD       0.056700
     43 H182         3.6840     1.5410    -1.1370 hc         1 0GD       0.056700
     44 H20          5.7400    -1.5510    -1.2290 ha         1 0GD       0.129000
     45 H24          5.6400     2.5810     0.0480 ha         1 0GD       0.119000
     46 H22          9.3900     0.4490    -0.1130 ha         1 0GD       0.132000
     47 H23          8.1060     2.5390     0.3670 ha         1 0GD       0.117000
@<TRIPOS>BOND
     1     1     2 1   
     2     1    26 1   
     3     1    27 1   
     4     1    28 1   
     5     2     3 ar  
     6     2     4 ar  
     7     3     8 ar  
     8     3    29 1   
     9     4     5 ar  
    10     4    30 1   
    11     5     6 1   
    12     5     7 ar  
    13     6    31 1   
    14     6    32 1   
    15     7     8 ar  
    16     8     9 1   
    17     9    10 ar  
    18     9    12 ar  
    19    10    11 ar  
    20    10    33 1   
    21    11    14 ar  
    22    11    35 1   
    23    12    13 ar  
    24    12    34 1   
    25    13    14 ar  
    26    13    36 1   
    27    14    15 1   
    28    15    16 1   
    29    15    37 1   
    30    15    38 1   
    31    16    17 1   
    32    16    39 1   
    33    17    18 1   
    34    17    40 1   
    35    17    41 1   
    36    18    19 1   
    37    18    42 1   
    38    18    43 1   
    39    19    20 ar  
    40    19    25 ar  
    41    20    21 ar  
    42    20    44 1   
    43    21    22 1   
    44    21    23 ar  
    45    23    24 ar  
    46    23    46 1   
    47    24    25 ar  
    48    24    47 1   
    49    25    45 1   
@<TRIPOS>SUBSTRUCTURE
     1 0GD         1 TEMP              0 ****  ****    0 ROOT
