@<TRIPOS>MOLECULE
0GE
   79    80     1     0     0
SMALL
abcg2


@<TRIPOS>ATOM
      1 C11         -3.3970     0.0060    -1.0120 ca         1 0GE      -0.298500
      2 C21         -2.6770    -0.1320    -2.1700 ca         1 0GE       0.008000
      3 C3          -1.9180    -1.2910    -2.3900 ca         1 0GE      -0.150000
      4 C4          -1.8580    -2.2600    -1.4290 ca         1 0GE      -0.050000
      5 C4A         -2.5290    -2.1160    -0.1950 ca         1 0GE      -0.066000
      6 C5          -2.4130    -3.1230     0.8180 ca         1 0GE       0.272000
      7 C6          -3.1920    -3.0220     1.9450 ca         1 0GE      -0.164000
      8 C7          -4.0580    -1.9310     2.1200 ca         1 0GE      -0.064000
      9 C8          -4.1380    -0.9250     1.2000 ca         1 0GE      -0.121000
     10 C8A         -3.3710    -0.9870     0.0130 ca         1 0GE       0.061000
     11 N3          -1.5340    -4.1930     0.5960 nh         1 0GE      -0.777400
     12 CM1         -0.1190    -3.8640     0.6610 c3         1 0GE       0.174600
     13 CM2         -1.8210    -5.4240     1.3010 c3         1 0GE       0.174600
     14 S           -4.3680     1.4910    -0.8470 sy         1 0GE       1.137600
     15 O1S         -4.1600     2.2780    -2.0510 o          1 0GE      -0.538000
     16 O2S         -5.7260     1.1420    -0.4600 o          1 0GE      -0.538000
     17 N           -3.7380     2.3580     0.4000 n7         1 0GE      -0.832300
     18 CA          -2.3410     2.7750     0.3480 c3         1 0GE       0.132500
     19 C           -1.4500     1.7020     0.9670 c          1 0GE       0.568100
     20 O           -1.7030     1.2370     2.0680 o          1 0GE      -0.612100
     21 CB          -2.1610     4.0880     1.1110 c3         1 0GE      -0.038400
     22 CG          -2.9090     5.2470     0.4760 c3         1 0GE      -0.210400
     23 CD          -2.7090     6.6060     1.1730 c          1 0GE       0.720000
     24 OE1         -1.8910     6.6620     2.1120 o          1 0GE      -0.738500
     25 OE2         -3.3870     7.5520     0.7220 o          1 0GE      -0.738500
     26 N1          -0.3850     1.3430     0.2430 ns         1 0GE      -0.494900
     27 CA1          0.5490     0.3560     0.7030 c3         1 0GE       0.022000
     28 C1           1.4820    -0.0380    -0.4290 c          1 0GE       0.589100
     29 O1           1.4940     0.5580    -1.4930 o          1 0GE      -0.598100
     30 N2           2.2710    -1.0880    -0.1460 ns         1 0GE      -0.516900
     31 CA2          3.3150    -1.5990    -1.0160 c3         1 0GE       0.076700
     32 C2           2.8370    -2.9080    -1.6890 c3         1 0GE       0.155300
     33 O2           3.8450    -3.4980    -2.4640 oh         1 0GE      -0.644000
     34 CB1          4.5940    -1.8120    -0.2110 c3         1 0GE      -0.091400
     35 CG1          5.1610    -0.5280     0.3770 c3         1 0GE      -0.090400
     36 CD1          6.4280    -0.8030     1.1730 c3         1 0GE       0.219800
     37 NE           6.9750     0.4250     1.7000 nu         1 0GE      -0.897400
     38 CZ           8.0190     0.3940     2.5870 c2         1 0GE       0.790100
     39 NH1          8.3980    -0.7130     3.1110 n2         1 0GE      -0.899100
     40 NH2          8.5900     1.6320     2.8020 nv         1 0GE      -1.067200
     41 CM           1.6680    -2.6220    -2.6080 c3         1 0GE       0.127600
     42 CL           0.9380    -4.1480    -3.2120 cl         1 0GE      -0.283000
     43 H21         -2.6990     0.6350    -2.9310 ha         1 0GE       0.146000
     44 H3          -1.4010    -1.4190    -3.3320 ha         1 0GE       0.119000
     45 H4          -1.3130    -3.1740    -1.6270 ha         1 0GE       0.129000
     46 H6          -3.1380    -3.7730     2.7210 ha         1 0GE       0.110000
     47 H7          -4.6620    -1.8800     3.0170 ha         1 0GE       0.116000
     48 H8          -4.8250    -0.1160     1.3870 ha         1 0GE       0.133000
     49 HM11         0.2350    -3.7660     1.6960 h1         1 0GE       0.032033
     50 HM12         0.4620    -4.6480     0.1750 h1         1 0GE       0.032033
     51 HM13         0.0950    -2.9280     0.1470 h1         1 0GE       0.032033
     52 HM21        -2.8680    -5.6980     1.1770 h1         1 0GE       0.032033
     53 HM22        -1.2140    -6.2220     0.8740 h1         1 0GE       0.032033
     54 HM23        -1.6000    -5.3800     2.3750 h1         1 0GE       0.032033
     55 H           -4.0280     2.0250     1.3150 hn         1 0GE       0.498000
     56 HA          -2.0750     2.9440    -0.6980 h1         1 0GE       0.078700
     57 HB2         -2.4800     3.9430     2.1460 hc         1 0GE       0.056200
     58 HB3         -1.0920     4.3100     1.1460 hc         1 0GE       0.056200
     59 HG2         -2.6010     5.3540    -0.5710 hc         1 0GE       0.029700
     60 HG3         -3.9790     5.0280     0.4390 hc         1 0GE       0.029700
     61 H1          -0.2290     1.7350    -0.6730 hn         1 0GE       0.346500
     62 HA2          1.1510     0.7330     1.5370 h1         1 0GE       0.067200
     63 HA3          0.0190    -0.5240     1.0780 h1         1 0GE       0.067200
     64 H2           2.2070    -1.4930     0.7770 hn         1 0GE       0.314500
     65 HA1          3.4990    -0.8490    -1.7890 h1         1 0GE       0.096700
     66 H37          2.5000    -3.5850    -0.8910 h1         1 0GE       0.037700
     67 H38          4.4230    -4.0110    -1.8920 ho         1 0GE       0.446000
     68 HB21         4.4020    -2.5390     0.5880 hc         1 0GE       0.046700
     69 HB31         5.3480    -2.2610    -0.8600 hc         1 0GE       0.046700
     70 HG21         5.3780     0.1740    -0.4350 hc         1 0GE       0.052700
     71 HG31         4.4300    -0.0400     1.0270 hc         1 0GE       0.052700
     72 HD2          6.1970    -1.4680     2.0070 h1         1 0GE       0.048700
     73 HD3          7.1530    -1.3370     0.5440 h1         1 0GE       0.048700
     74 HE           6.9830     1.1970     1.0510 hn         1 0GE       0.471000
     75 HH1          9.1250    -0.5520     3.7990 hn         1 0GE       0.375400
     76 HH21         7.9780     2.4280     2.7030 hn         1 0GE       0.454000
     77 HH22         9.1590     1.7030     3.6300 hn         1 0GE       0.454000
     78 HM1          0.8770    -2.0830    -2.0980 h1         1 0GE       0.085700
     79 HM2          1.9820    -2.0460    -3.4780 h1         1 0GE       0.085700
@<TRIPOS>BOND
     1     1     2 ar  
     2     1    10 ar  
     3     1    14 1   
     4     2     3 ar  
     5     2    43 1   
     6     3     4 ar  
     7     3    44 1   
     8     4     5 ar  
     9     4    45 1   
    10     5     6 ar  
    11     5    10 ar  
    12     6     7 ar  
    13     6    11 1   
    14     7     8 ar  
    15     7    46 1   
    16     8     9 ar  
    17     8    47 1   
    18     9    10 ar  
    19     9    48 1   
    20    11    12 1   
    21    11    13 1   
    22    12    49 1   
    23    12    50 1   
    24    12    51 1   
    25    13    52 1   
    26    13    53 1   
    27    13    54 1   
    28    14    15 2   
    29    14    16 2   
    30    14    17 1   
    31    17    18 1   
    32    17    55 1   
    33    18    19 1   
    34    18    21 1   
    35    18    56 1   
    36    19    20 2   
    37    19    26 1   
    38    21    22 1   
    39    21    57 1   
    40    21    58 1   
    41    22    23 1   
    42    22    59 1   
    43    22    60 1   
    44    23    24 1   
    45    23    25 1   
    46    26    27 1   
    47    26    61 1   
    48    27    28 1   
    49    27    62 1   
    50    27    63 1   
    51    28    29 2   
    52    28    30 1   
    53    30    31 1   
    54    30    64 1   
    55    31    32 1   
    56    31    34 1   
    57    31    65 1   
    58    32    33 1   
    59    32    41 1   
    60    32    66 1   
    61    33    67 1   
    62    34    35 1   
    63    34    68 1   
    64    34    69 1   
    65    35    36 1   
    66    35    70 1   
    67    35    71 1   
    68    36    37 1   
    69    36    72 1   
    70    36    73 1   
    71    37    38 1   
    72    37    74 1   
    73    38    39 2   
    74    38    40 1   
    75    39    75 1   
    76    40    76 1   
    77    40    77 1   
    78    41    42 1   
    79    41    78 1   
    80    41    79 1   
@<TRIPOS>SUBSTRUCTURE
     1 0GE         1 TEMP              0 ****  ****    0 ROOT
