@<TRIPOS>MOLECULE
0GE
   79    80     1     0     0
SMALL
No Charge or Current Charge


@<TRIPOS>ATOM
      1 C11         -3.7760     0.1880    -0.4700 ca         1 0GE      -0.298500
      2 C21         -3.4400     0.1620    -1.8420 ca         1 0GE       0.008000
      3 C3          -2.6370    -0.8540    -2.3650 ca         1 0GE      -0.150000
      4 C4          -2.1670    -1.8760    -1.5360 ca         1 0GE      -0.050000
      5 C4A         -2.4760    -1.8880    -0.1590 ca         1 0GE      -0.066000
      6 C5          -1.9780    -2.9290     0.6750 ca         1 0GE       0.272000
      7 C6          -2.2480    -2.9020     2.0510 ca         1 0GE      -0.164000
      8 C7          -2.9990    -1.8640     2.6070 ca         1 0GE      -0.064000
      9 C8          -3.5060    -0.8470     1.7890 ca         1 0GE      -0.121000
     10 C8A         -3.2720    -0.8390     0.3920 ca         1 0GE       0.061000
     11 N3          -1.2190    -4.0130     0.1660 nh         1 0GE      -0.777400
     12 CM1          0.0540    -4.4010     0.8060 c3         1 0GE       0.174600
     13 CM2         -1.8840    -5.0490    -0.6500 c3         1 0GE       0.174600
     14 S           -4.8960     1.5270     0.0410 sy         1 0GE       1.137600
     15 O1S         -5.4520     2.2100    -1.1300 o          1 0GE      -0.538000
     16 O2S         -5.7660     1.0690     1.1250 o          1 0GE      -0.538000
     17 N           -3.8870     2.6480     0.7650 n7         1 0GE      -0.832300
     18 CA          -2.4510     2.7710     0.3610 c3         1 0GE       0.132500
     19 C           -1.5020     1.7700     1.1010 c          1 0GE       0.568100
     20 O           -1.5370     1.6070     2.3150 o          1 0GE      -0.612100
     21 CB          -1.9740     4.2240     0.6250 c3         1 0GE      -0.038400
     22 CG          -2.6610     5.2960    -0.2630 c3         1 0GE      -0.210400
     23 CD          -2.0480     6.6770     0.0120 c          1 0GE       0.720000
     24 OE1         -1.0670     7.0090    -0.6340 o          1 0GE      -0.738500
     25 OE2         -2.5330     7.3570     0.9030 o          1 0GE      -0.738500
     26 N1          -0.6270     1.0660     0.3020 ns         1 0GE      -0.494900
     27 CA1          0.3410     0.0640     0.7960 c3         1 0GE       0.022000
     28 C1           1.2910    -0.4140    -0.3240 c          1 0GE       0.589100
     29 O1           1.2370     0.0110    -1.4710 o          1 0GE      -0.598100
     30 N2           2.2210    -1.3560     0.0640 ns         1 0GE      -0.516900
     31 CA2          3.3060    -1.8710    -0.7900 c3         1 0GE       0.076700
     32 C2           2.9160    -3.2100    -1.4980 c3         1 0GE       0.155300
     33 O2           3.9760    -3.6250    -2.3820 oh         1 0GE      -0.644000
     34 CB1          4.6140    -1.9750     0.0410 c3         1 0GE      -0.091400
     35 CG1          5.0580    -0.6420     0.6970 c3         1 0GE      -0.090400
     36 CD1          6.3970    -0.7650     1.4530 c3         1 0GE       0.219800
     37 NE           6.7660     0.5220     2.0580 nu         1 0GE      -0.897400
     38 CZ           7.8570     0.7130     2.7810 c2         1 0GE       0.790100
     39 NH1          8.7320    -0.1440     3.0060 n2         1 0GE      -0.899100
     40 NH2          7.8760     1.9830     3.0840 nv         1 0GE      -1.067200
     41 CM           1.5910    -3.1120    -2.2990 c3         1 0GE       0.127600
     42 Cl           1.1530    -4.6770    -3.1330 cl         1 0GE      -0.283000
     43 H21         -3.8050     0.9300    -2.5230 ha         1 0GE       0.146000
     44 H3          -2.3880    -0.8570    -3.4230 ha         1 0GE       0.119000
     45 H4          -1.5510    -2.6530    -1.9790 ha         1 0GE       0.129000
     46 H6          -1.8760    -3.6920     2.6960 ha         1 0GE       0.110000
     47 H7          -3.1910    -1.8460     3.6770 ha         1 0GE       0.116000
     48 H8          -4.0520    -0.0580     2.2880 ha         1 0GE       0.133000
     49 HM11        -0.1290    -5.0780     1.6510 h1         1 0GE       0.032033
     50 HM12         0.7050    -4.9130     0.0840 h1         1 0GE       0.032033
     51 HM13         0.5860    -3.5130     1.1720 h1         1 0GE       0.032033
     52 HM21        -2.8780    -4.7110    -0.9720 h1         1 0GE       0.032033
     53 HM22        -1.2920    -5.2670    -1.5490 h1         1 0GE       0.032033
     54 HM23        -2.0060    -5.9750    -0.0730 h1         1 0GE       0.032033
     55 H           -3.9510     2.3930     1.7500 hn         1 0GE       0.498000
     56 HA          -2.3430     2.5930    -0.7180 h1         1 0GE       0.078700
     57 HB2         -2.1260     4.4710     1.6830 hc         1 0GE       0.056200
     58 HB3         -0.8920     4.2710     0.4480 hc         1 0GE       0.056200
     59 HG2         -2.4710     4.9960    -1.3010 hc         1 0GE       0.029700
     60 HG3         -3.7230     5.2910     0.0110 hc         1 0GE       0.029700
     61 H1          -0.6610     1.2390    -0.6980 hn         1 0GE       0.346500
     62 HA2          0.9480     0.5010     1.5990 h1         1 0GE       0.067200
     63 HA3         -0.1960    -0.8050     1.1950 h1         1 0GE       0.067200
     64 H2           2.1960    -1.6460     1.0350 hn         1 0GE       0.314500
     65 HA1          3.4890    -1.1330    -1.5840 h1         1 0GE       0.096700
     66 H37          2.7710    -3.9710    -0.7200 h1         1 0GE       0.037700
     67 H38          4.6510    -4.0820    -1.8340 ho         1 0GE       0.446000
     68 HB21         4.4870    -2.7350     0.8220 hc         1 0GE       0.046700
     69 HB31         5.4290    -2.3210    -0.6060 hc         1 0GE       0.046700
     70 HG21         5.1520     0.1260    -0.0810 hc         1 0GE       0.052700
     71 HG31         4.2880    -0.2990     1.3980 hc         1 0GE       0.052700
     72 HD2          6.2990    -1.5330     2.2340 h1         1 0GE       0.048700
     73 HD3          7.1790    -1.0920     0.7540 h1         1 0GE       0.048700
     74 HE           6.5130     1.3520     1.5400 hn         1 0GE       0.471000
     75 HH1          9.4880     0.3090     3.5270 hn         1 0GE       0.375400
     76 HH21         6.9550     2.3030     3.3490 hn         1 0GE       0.454000
     77 HH22         8.5910     2.2260     3.7570 hn         1 0GE       0.454000
     78 HM1          0.7620    -2.8650    -1.6260 h1         1 0GE       0.085700
     79 HM2          1.6670    -2.3320    -3.0670 h1         1 0GE       0.085700
@<TRIPOS>BOND
     1     1     2 ar  
     2     1    10 ar  
     3     1    14 1   
     4     2     3 ar  
     5     2    43 1   
     6     3     4 ar  
     7     3    44 1   
     8     4     5 ar  
     9     4    45 1   
    10     5     6 ar  
    11     5    10 ar  
    12     6     7 ar  
    13     6    11 1   
    14     7     8 ar  
    15     7    46 1   
    16     8     9 ar  
    17     8    47 1   
    18     9    10 ar  
    19     9    48 1   
    20    11    12 1   
    21    11    13 1   
    22    12    49 1   
    23    12    50 1   
    24    12    51 1   
    25    13    52 1   
    26    13    53 1   
    27    13    54 1   
    28    14    15 2   
    29    14    16 2   
    30    14    17 1   
    31    17    18 1   
    32    17    55 1   
    33    18    19 1   
    34    18    21 1   
    35    18    56 1   
    36    19    20 2   
    37    19    26 1   
    38    21    22 1   
    39    21    57 1   
    40    21    58 1   
    41    22    23 1   
    42    22    59 1   
    43    22    60 1   
    44    23    24 1   
    45    23    25 1   
    46    26    27 1   
    47    26    61 1   
    48    27    28 1   
    49    27    62 1   
    50    27    63 1   
    51    28    29 2   
    52    28    30 1   
    53    30    31 1   
    54    30    64 1   
    55    31    32 1   
    56    31    34 1   
    57    31    65 1   
    58    32    33 1   
    59    32    41 1   
    60    32    66 1   
    61    33    67 1   
    62    34    35 1   
    63    34    68 1   
    64    34    69 1   
    65    35    36 1   
    66    35    70 1   
    67    35    71 1   
    68    36    37 1   
    69    36    72 1   
    70    36    73 1   
    71    37    38 1   
    72    37    74 1   
    73    38    39 2   
    74    38    40 1   
    75    39    75 1   
    76    40    76 1   
    77    40    77 1   
    78    41    42 1   
    79    41    78 1   
    80    41    79 1   
@<TRIPOS>SUBSTRUCTURE
     1 0GE         1 TEMP              0 ****  ****    0 ROOT
