@<TRIPOS>MOLECULE
0GF
   17    17     1     0     0
SMALL
abcg2


@<TRIPOS>ATOM
      1 C23          3.5460     0.0330    -0.0740 c          1 0GF       0.713600
      2 C24          2.0230     0.1060    -0.0310 ca         1 0GF      -0.120600
      3 C25          1.2550    -1.0520    -0.0480 ca         1 0GF      -0.086000
      4 C26         -0.1380    -1.0360    -0.0050 ca         1 0GF      -0.088300
      5 C27         -0.7490     0.2160     0.0560 ca         1 0GF      -0.025900
      6 C28         -0.0140     1.3940     0.0730 ca         1 0GF      -0.121000
      7 C29          1.3700     1.3320     0.0300 ca         1 0GF      -0.088000
      8 C30         -0.9100    -2.3210    -0.0270 c3         1 0GF      -0.036800
      9 O7           4.0480    -1.1040    -0.1440 o          1 0GF      -0.716500
     10 BR          -2.6380     0.3460     0.1170 br         1 0GF      -0.179100
     11 H24          1.7580    -2.0100    -0.0980 ha         1 0GF       0.130000
     12 H25         -0.5100     2.3540     0.1210 ha         1 0GF       0.103000
     13 H26          1.9440     2.2490     0.0450 ha         1 0GF       0.131000
     14 H27         -1.5370    -2.4310     0.8600 hc         1 0GF       0.033367
     15 H28         -1.5680    -2.3840    -0.8960 hc         1 0GF       0.033367
     16 H29         -0.2320    -3.1720    -0.0620 hc         1 0GF       0.033367
     17 OXT          4.1530     1.1200    -0.0340 o          1 0GF      -0.716500
@<TRIPOS>BOND
     1     1     2 1   
     2     1     9 1   
     3     1    17 1   
     4     2     3 ar  
     5     2     7 ar  
     6     3     4 ar  
     7     3    11 1   
     8     4     5 ar  
     9     4     8 1   
    10     5     6 ar  
    11     5    10 1   
    12     6     7 ar  
    13     6    12 1   
    14     7    13 1   
    15     8    14 1   
    16     8    15 1   
    17     8    16 1   
@<TRIPOS>SUBSTRUCTURE
     1 0GF         1 TEMP              0 ****  ****    0 ROOT
