@<TRIPOS>MOLECULE
0GF
   17    17     1     0     0
SMALL
No Charge or Current Charge


@<TRIPOS>ATOM
      1 C23          3.5700     0.0450    -0.0740 c          1 0GF       0.713600
      2 C24          2.0510     0.1060    -0.0290 ca         1 0GF      -0.120600
      3 C25          1.2770    -1.0800    -0.0480 ca         1 0GF      -0.086000
      4 C26         -0.1320    -1.0340    -0.0060 ca         1 0GF      -0.088300
      5 C27         -0.7790     0.2180     0.0550 ca         1 0GF      -0.025900
      6 C28         -0.0250     1.4000     0.0750 ca         1 0GF      -0.121000
      7 C29          1.3780     1.3480     0.0330 ca         1 0GF      -0.088000
      8 C30         -0.9300    -2.3340    -0.0280 c3         1 0GF      -0.036800
      9 O7           4.1130    -1.0500    -0.1270 o          1 0GF      -0.716500
     10 Br          -2.6920     0.3500     0.1140 br         1 0GF      -0.179100
     11 H24          1.7750    -2.0460    -0.0950 ha         1 0GF       0.130000
     12 H25         -0.5270     2.3640     0.1220 ha         1 0GF       0.103000
     13 H26          1.9410     2.2790     0.0490 ha         1 0GF       0.131000
     14 H27         -1.5460    -2.4340     0.8740 hc         1 0GF       0.033367
     15 H28         -1.5960    -2.3730    -0.8990 hc         1 0GF       0.033367
     16 H29         -0.2770    -3.2130    -0.0770 hc         1 0GF       0.033367
     17 OXT          4.1990     1.0940    -0.0560 o          1 0GF      -0.716500
@<TRIPOS>BOND
     1     1     2 1   
     2     1     9 1   
     3     1    17 1   
     4     2     3 ar  
     5     2     7 ar  
     6     3     4 ar  
     7     3    11 1   
     8     4     5 ar  
     9     4     8 1   
    10     5     6 ar  
    11     5    10 1   
    12     6     7 ar  
    13     6    12 1   
    14     7    13 1   
    15     8    14 1   
    16     8    15 1   
    17     8    16 1   
@<TRIPOS>SUBSTRUCTURE
     1 0GF         1 TEMP              0 ****  ****    0 ROOT
