@<TRIPOS>MOLECULE
0GG
   34    34     1     0     0
SMALL
abcg2


@<TRIPOS>ATOM
      1 N4          -3.7470     1.6270    -0.0980 n8         1 0GG      -0.978200
      2 N6          -1.8720    -0.3000     1.1400 ns         1 0GG      -0.504900
      3 C31         -4.1750     0.3600     0.4600 c3         1 0GG       0.003500
      4 C32         -5.3920    -0.2220    -0.2930 c          1 0GG       0.726000
      5 C33         -3.0840    -0.7280     0.4790 c3         1 0GG       0.061000
      6 C34         -0.7360     0.0500     0.5130 c          1 0GG       0.590100
      7 C35          0.3550     0.5490     1.4540 c3         1 0GG      -0.123100
      8 C36          1.6870     0.6950     0.7840 ca         1 0GG      -0.051300
      9 C37          2.4550    -0.4380     0.5050 ca         1 0GG      -0.133000
     10 C38          3.6820    -0.3260    -0.1250 ca         1 0GG       0.044100
     11 C39          4.1710     0.9420    -0.4890 ca         1 0GG       0.112100
     12 C40          3.4120     2.0620    -0.2090 ca         1 0GG      -0.125000
     13 C41          2.1770     1.9380     0.4220 ca         1 0GG      -0.093000
     14 C42          4.0920    -2.6680    -0.1090 c3         1 0GG       0.157900
     15 O8          -5.6520     0.2460    -1.4170 o          1 0GG      -0.724500
     16 O9          -0.5790    -0.0140    -0.6960 o          1 0GG      -0.601100
     17 O10          4.4990    -1.3550    -0.4400 os         1 0GG      -0.374100
     18 O11          5.3660     1.0830    -1.1010 oh         1 0GG      -0.543100
     19 H4          -2.8940     1.9300     0.3560 hn         1 0GG       0.377500
     20 H7          -1.9060    -0.2040     2.1430 hn         1 0GG       0.293500
     21 H32         -4.4770     0.5400     1.4990 h1         1 0GG       0.036700
     22 H33         -2.8270    -1.0140    -0.5410 h1         1 0GG       0.065200
     23 H34         -3.4620    -1.6180     0.9840 h1         1 0GG       0.065200
     24 H35          0.0310     1.5130     1.8560 hc         1 0GG       0.056200
     25 H36          0.4210    -0.1270     2.3110 hc         1 0GG       0.056200
     26 H37          2.0770    -1.4110     0.7920 ha         1 0GG       0.117000
     27 H38          3.7900     3.0390    -0.4840 ha         1 0GG       0.123000
     28 H39          1.6000     2.8300     0.6320 ha         1 0GG       0.116000
     29 H40          3.9670    -2.7930     0.9700 h1         1 0GG       0.039367
     30 H41          3.1590    -2.9420    -0.6080 h1         1 0GG       0.039367
     31 H42          4.8820    -3.3330    -0.4500 h1         1 0GG       0.039367
     32 H45          5.7770     0.2200    -1.2270 ho         1 0GG       0.475000
     33 H2          -3.5280     1.5060    -1.0790 hn         1 0GG       0.377500
     34 OXT         -5.9860    -1.1550     0.2850 o          1 0GG      -0.724500
@<TRIPOS>BOND
     1     1     3 1   
     2     1    19 1   
     3     1    33 1   
     4     2     5 1   
     5     2     6 1   
     6     2    20 1   
     7     3     4 1   
     8     3     5 1   
     9     3    21 1   
    10     4    15 1   
    11     4    34 1   
    12     5    22 1   
    13     5    23 1   
    14     6     7 1   
    15     6    16 2   
    16     7     8 1   
    17     7    24 1   
    18     7    25 1   
    19     8     9 ar  
    20     8    13 ar  
    21     9    10 ar  
    22     9    26 1   
    23    10    11 ar  
    24    10    17 1   
    25    11    12 ar  
    26    11    18 1   
    27    12    13 ar  
    28    12    27 1   
    29    13    28 1   
    30    14    17 1   
    31    14    29 1   
    32    14    30 1   
    33    14    31 1   
    34    18    32 1   
@<TRIPOS>SUBSTRUCTURE
     1 0GG         1 TEMP              0 ****  ****    0 ROOT
