@<TRIPOS>MOLECULE
0GG
   34    34     1     0     0
SMALL
No Charge or Current Charge


@<TRIPOS>ATOM
      1 N4          -4.0410     1.4300     0.2860 n8         1 0GG      -0.978200
      2 N6          -1.4320    -0.2100     0.6960 ns         1 0GG      -0.504900
      3 C31         -3.9450    -0.0700     0.4320 c3         1 0GG       0.003500
      4 C32         -5.1400    -0.9160    -0.1660 c          1 0GG       0.726000
      5 C33         -2.5940    -0.5970    -0.1230 c3         1 0GG       0.061000
      6 C34         -0.7900     1.0110     0.6540 c          1 0GG       0.590100
      7 C35          0.4010     1.1500     1.6070 c3         1 0GG      -0.123100
      8 C36          1.7170     1.0070     0.8500 ca         1 0GG      -0.051300
      9 C37          2.2840    -0.2680     0.6510 ca         1 0GG      -0.133000
     10 C38          3.5020    -0.4040    -0.0540 ca         1 0GG       0.044100
     11 C39          4.1430     0.7470    -0.5570 ca         1 0GG       0.112100
     12 C40          3.5790     2.0170    -0.3610 ca         1 0GG      -0.125000
     13 C41          2.3690     2.1470     0.3410 ca         1 0GG      -0.093000
     14 C42          3.5210    -2.8660     0.1920 c3         1 0GG       0.157900
     15 O8          -5.4010    -0.7910    -1.3570 o          1 0GG      -0.724500
     16 O9          -1.1440     1.9130    -0.0930 o          1 0GG      -0.601100
     17 O10          4.0990    -1.6340    -0.2770 os         1 0GG      -0.374100
     18 O11          5.3190     0.6210    -1.2380 oh         1 0GG      -0.543100
     19 H4          -3.0820     1.8060     0.3270 hn         1 0GG       0.377500
     20 H7          -1.0610    -0.8900     1.3490 hn         1 0GG       0.293500
     21 H32         -3.9360    -0.2770     1.5110 h1         1 0GG       0.036700
     22 H33         -2.4500    -0.2520    -1.1560 h1         1 0GG       0.065200
     23 H34         -2.6300    -1.6950    -0.1480 h1         1 0GG       0.065200
     24 H35          0.3570     2.1370     2.0820 hc         1 0GG       0.056200
     25 H36          0.3490     0.3770     2.3830 hc         1 0GG       0.056200
     26 H37          1.7680    -1.1380     1.0470 ha         1 0GG       0.117000
     27 H38          4.0780     2.9000    -0.7520 ha         1 0GG       0.123000
     28 H39          1.9360     3.1340     0.4860 ha         1 0GG       0.116000
     29 H40          3.4280    -2.8620     1.2860 h1         1 0GG       0.039367
     30 H41          2.5260    -3.0220    -0.2450 h1         1 0GG       0.039367
     31 H42          4.1540    -3.7160    -0.0920 h1         1 0GG       0.039367
     32 H45          5.5250    -0.3400    -1.2570 ho         1 0GG       0.475000
     33 H2          -4.3250     1.6420    -0.6780 hn         1 0GG       0.377500
     34 OXT         -5.8010    -1.6100     0.5950 o          1 0GG      -0.724500
@<TRIPOS>BOND
     1     1     3 1   
     2     1    19 1   
     3     1    33 1   
     4     2     5 1   
     5     2     6 1   
     6     2    20 1   
     7     3     4 1   
     8     3     5 1   
     9     3    21 1   
    10     4    15 1   
    11     4    34 1   
    12     5    22 1   
    13     5    23 1   
    14     6     7 1   
    15     6    16 2   
    16     7     8 1   
    17     7    24 1   
    18     7    25 1   
    19     8     9 ar  
    20     8    13 ar  
    21     9    10 ar  
    22     9    26 1   
    23    10    11 ar  
    24    10    17 1   
    25    11    12 ar  
    26    11    18 1   
    27    12    13 ar  
    28    12    27 1   
    29    13    28 1   
    30    14    17 1   
    31    14    29 1   
    32    14    30 1   
    33    14    31 1   
    34    18    32 1   
@<TRIPOS>SUBSTRUCTURE
     1 0GG         1 TEMP              0 ****  ****    0 ROOT
