@<TRIPOS>MOLECULE
0GH
   94    96     1     0     0
SMALL
abcg2


@<TRIPOS>ATOM
      1 CBK          8.8720    -0.4500    -3.5690 c3         1 0GH      -0.086600
      2 CBL          8.1730    -0.1250    -2.2540 c3         1 0GH      -0.076700
      3 CBM          8.8850     1.0060    -1.5200 c3         1 0GH      -0.086600
      4 CBN          6.7090     0.2120    -2.5250 c3         1 0GH       0.105000
      5 NBO          5.9720     0.3820    -1.2920 ns         1 0GH      -0.504900
      6 CBP          4.7940     1.0210    -1.2150 c          1 0GH       0.602100
      7 OBV          4.2840     1.5980    -2.1640 o          1 0GH      -0.582100
      8 CBG          4.1290     0.9810     0.1690 c3         1 0GH       0.075500
      9 CBH          3.8390    -0.4780     0.6200 c3         1 0GH       0.135300
     10 CBJ          3.0580    -1.2680    -0.4120 c3         1 0GH      -0.098100
     11 OBI          5.0350    -1.1840     0.9050 oh         1 0GH      -0.662000
     12 NBF          2.9640     1.8310     0.1550 n7         1 0GH      -0.859400
     13 CAX          2.4530     2.2270     1.4490 c3         1 0GH       0.169800
     14 CAW          1.0780     2.8660     1.2980 c3         1 0GH       0.093700
     15 CAY          0.5860     3.4710     2.6230 c3         1 0GH      -0.052100
     16 CAZ         -0.8180     3.9920     2.5050 ca         1 0GH      -0.084300
     17 CBA         -1.0630     5.2600     1.9820 ca         1 0GH      -0.100000
     18 CBB         -2.3600     5.7090     1.7840 ca         1 0GH      -0.106500
     19 CBC         -3.4380     4.8920     2.1020 ca         1 0GH      -0.107000
     20 CBD         -3.2070     3.6310     2.6320 ca         1 0GH      -0.106500
     21 CBE         -1.9070     3.1880     2.8350 ca         1 0GH      -0.100000
     22 NAV          0.1430     1.8630     0.8220 ns         1 0GH      -0.502900
     23 CAT         -0.8410     2.1080    -0.0690 c          1 0GH       0.615700
     24 OAU         -0.9400     3.1310    -0.7220 o          1 0GH      -0.561100
     25 CAP         -1.8330     0.9980    -0.2090 ca         1 0GH      -0.149600
     26 CAQ         -1.4540    -0.3360    -0.1580 ca         1 0GH      -0.068000
     27 CAO         -3.1660     1.3290    -0.4170 ca         1 0GH      -0.055000
     28 CAN         -4.1170     0.3270    -0.5430 ca         1 0GH       0.242000
     29 NAE         -5.4960     0.6500    -0.6620 nh         1 0GH      -0.771300
     30 CBT         -6.0320     1.6670     0.2400 c3         1 0GH       0.193100
     31 SAB         -6.1520     0.6150    -2.2020 s6         1 0GH       1.191100
     32 OAC         -6.4910     1.9660    -2.6270 o          1 0GH      -0.525500
     33 OAD         -5.2570    -0.1770    -3.0290 o          1 0GH      -0.525500
     34 CAA         -7.6610    -0.2830    -1.9560 c3         1 0GH      -0.347100
     35 CAS         -3.7350    -1.0070    -0.5020 ca         1 0GH      -0.014000
     36 CAR         -2.4030    -1.3430    -0.3040 ca         1 0GH      -0.149600
     37 CAL         -2.0190    -2.7900    -0.2630 c          1 0GH       0.613700
     38 OAM         -2.5910    -3.6190    -0.9530 o          1 0GH      -0.583100
     39 NBQ         -1.0090    -3.0780     0.5750 ns         1 0GH      -0.501900
     40 CBR         -0.4810    -4.4200     0.7670 c3         1 0GH       0.159000
     41 CBS         -1.2970    -5.2060     1.7920 c3         1 0GH      -0.109100
     42 CAI          0.9780    -4.3400     1.1530 ca         1 0GH      -0.097300
     43 CAH          1.9360    -5.0200     0.4100 ca         1 0GH      -0.104000
     44 CAG          3.2790    -4.9720     0.7670 ca         1 0GH      -0.111000
     45 CAF          3.6810    -4.2280     1.8660 ca         1 0GH      -0.094000
     46 CAK          2.7320    -3.5450     2.6150 ca         1 0GH      -0.111000
     47 CAJ          1.3910    -3.6060     2.2650 ca         1 0GH      -0.104000
     48 H1           9.9200    -0.7050    -3.4040 hc         1 0GH       0.035533
     49 H2           8.4030    -1.2950    -4.0770 hc         1 0GH       0.035533
     50 H3           8.8430     0.4050    -4.2470 hc         1 0GH       0.035533
     51 H4           8.2040    -1.0230    -1.6240 hc         1 0GH       0.043700
     52 H5           8.3900     1.2610    -0.5830 hc         1 0GH       0.035533
     53 H6           9.9140     0.7300    -1.2850 hc         1 0GH       0.035533
     54 H7           8.9160     1.9080    -2.1360 hc         1 0GH       0.035533
     55 H8           6.6490     1.1340    -3.1070 h1         1 0GH       0.051200
     56 H9           6.2570    -0.5780    -3.1360 h1         1 0GH       0.051200
     57 H10          6.2180    -0.2140    -0.5130 hn         1 0GH       0.321500
     58 H11          4.8370     1.4090     0.8890 h1         1 0GH       0.065700
     59 H12          3.2320    -0.4200     1.5310 h1         1 0GH       0.025700
     60 H13          3.6310    -1.4270    -1.3280 hc         1 0GH       0.052700
     61 H14          2.7800    -2.2430    -0.0140 hc         1 0GH       0.052700
     62 H15          2.1360    -0.7520    -0.6820 hc         1 0GH       0.052700
     63 H16          5.3700    -0.8850     1.7570 ho         1 0GH       0.441000
     64 H17          2.2290     1.4240    -0.4110 hn         1 0GH       0.448000
     65 H19          2.3670     1.4040     2.1760 h1         1 0GH       0.027700
     66 H20          3.1330     2.9580     1.8960 h1         1 0GH       0.027700
     67 H21          1.1350     3.6500     0.5410 h1         1 0GH       0.109700
     68 H22          0.6420     2.7080     3.4050 hc         1 0GH       0.051200
     69 H23          1.2720     4.2720     2.9090 hc         1 0GH       0.051200
     70 H24         -0.2270     5.8990     1.7210 ha         1 0GH       0.108500
     71 H25         -2.5320     6.6970     1.3760 ha         1 0GH       0.112000
     72 H26         -4.4510     5.2390     1.9420 ha         1 0GH       0.113000
     73 H27         -4.0400     2.9890     2.8910 ha         1 0GH       0.112000
     74 H28         -1.7360     2.2020     3.2530 ha         1 0GH       0.108500
     75 H29          0.0200     1.0700     1.4350 hn         1 0GH       0.296500
     76 H30         -0.4070    -0.5950    -0.0520 ha         1 0GH       0.122000
     77 H31         -3.4540     2.3710    -0.4620 ha         1 0GH       0.145000
     78 H32         -5.7130     2.6810    -0.0060 h1         1 0GH       0.050367
     79 H33         -7.1200     1.6370     0.2380 h1         1 0GH       0.050367
     80 H34         -5.7030     1.4250     1.2480 h1         1 0GH       0.050367
     81 H35         -8.2930     0.2360    -1.2400 h1         1 0GH       0.103700
     82 H36         -8.1690    -0.3350    -2.9180 h1         1 0GH       0.103700
     83 H37         -7.4270    -1.2820    -1.6000 h1         1 0GH       0.103700
     84 H38         -4.4850    -1.7820    -0.5930 ha         1 0GH       0.142000
     85 H39         -0.7430    -2.3780     1.2500 hn         1 0GH       0.307500
     86 H40         -0.5500    -4.9300    -0.1950 h1         1 0GH       0.084700
     87 H41         -1.2860    -4.7160     2.7660 hc         1 0GH       0.045700
     88 H42         -2.3330    -5.3010     1.4670 hc         1 0GH       0.045700
     89 H43         -0.8870    -6.2090     1.9130 hc         1 0GH       0.045700
     90 H44          1.6330    -5.5930    -0.4580 ha         1 0GH       0.111000
     91 H45          4.0100    -5.5090     0.1760 ha         1 0GH       0.113500
     92 H46          4.7270    -4.1760     2.1360 ha         1 0GH       0.117000
     93 H47          3.0350    -2.9620     3.4750 ha         1 0GH       0.113500
     94 H48          0.6690    -3.0740     2.8740 ha         1 0GH       0.111000
@<TRIPOS>BOND
     1     1     2 1   
     2     1    48 1   
     3     1    49 1   
     4     1    50 1   
     5     2     3 1   
     6     2     4 1   
     7     2    51 1   
     8     3    52 1   
     9     3    53 1   
    10     3    54 1   
    11     4     5 1   
    12     4    55 1   
    13     4    56 1   
    14     5     6 1   
    15     5    57 1   
    16     6     7 2   
    17     6     8 1   
    18     8     9 1   
    19     8    12 1   
    20     8    58 1   
    21     9    10 1   
    22     9    11 1   
    23     9    59 1   
    24    10    60 1   
    25    10    61 1   
    26    10    62 1   
    27    11    63 1   
    28    12    13 1   
    29    12    64 1   
    30    13    14 1   
    31    13    65 1   
    32    13    66 1   
    33    14    15 1   
    34    14    22 1   
    35    14    67 1   
    36    15    16 1   
    37    15    68 1   
    38    15    69 1   
    39    16    17 ar  
    40    16    21 ar  
    41    17    18 ar  
    42    17    70 1   
    43    18    19 ar  
    44    18    71 1   
    45    19    20 ar  
    46    19    72 1   
    47    20    21 ar  
    48    20    73 1   
    49    21    74 1   
    50    22    23 1   
    51    22    75 1   
    52    23    24 2   
    53    23    25 1   
    54    25    26 ar  
    55    25    27 ar  
    56    26    36 ar  
    57    26    76 1   
    58    27    28 ar  
    59    27    77 1   
    60    28    29 1   
    61    28    35 ar  
    62    29    30 1   
    63    29    31 1   
    64    30    78 1   
    65    30    79 1   
    66    30    80 1   
    67    31    32 2   
    68    31    33 2   
    69    31    34 1   
    70    34    81 1   
    71    34    82 1   
    72    34    83 1   
    73    35    36 ar  
    74    35    84 1   
    75    36    37 1   
    76    37    38 2   
    77    37    39 1   
    78    39    40 1   
    79    39    85 1   
    80    40    41 1   
    81    40    42 1   
    82    40    86 1   
    83    41    87 1   
    84    41    88 1   
    85    41    89 1   
    86    42    43 ar  
    87    42    47 ar  
    88    43    44 ar  
    89    43    90 1   
    90    44    45 ar  
    91    44    91 1   
    92    45    46 ar  
    93    45    92 1   
    94    46    47 ar  
    95    46    93 1   
    96    47    94 1   
@<TRIPOS>SUBSTRUCTURE
     1 0GH         1 TEMP              0 ****  ****    0 ROOT
