@<TRIPOS>MOLECULE
0GH
   94    96     1     0     0
SMALL
No Charge or Current Charge


@<TRIPOS>ATOM
      1 CBK          8.7400     0.5160    -4.2400 c3         1 0GH      -0.086600
      2 CBL          8.0190     0.6870    -2.8850 c3         1 0GH      -0.076700
      3 CBM          8.3220     2.0720    -2.2640 c3         1 0GH      -0.086600
      4 CBN          6.5000     0.4210    -3.0270 c3         1 0GH       0.105000
      5 NBO          5.8060     0.4300    -1.7400 ns         1 0GH      -0.504900
      6 CBP          4.4330     0.4270    -1.5920 c          1 0GH       0.602100
      7 OBV          3.6870     0.4470    -2.5660 o          1 0GH      -0.582100
      8 CBG          3.9200     0.4820    -0.1100 c3         1 0GH       0.075500
      9 CBH          3.4350    -0.9290     0.3710 c3         1 0GH       0.135300
     10 CBJ          2.2130    -1.4890    -0.3930 c3         1 0GH      -0.098100
     11 OBI          4.5050    -1.8730     0.2670 oh         1 0GH      -0.662000
     12 NBF          2.8700     1.5430     0.1060 n7         1 0GH      -0.859400
     13 CAX          2.5980     1.9540     1.5020 c3         1 0GH       0.169800
     14 CAW          1.2170     2.6530     1.6060 c3         1 0GH       0.093700
     15 CAY          0.9450     3.1950     3.0300 c3         1 0GH      -0.052100
     16 CAZ         -0.4200     3.8630     3.1650 ca         1 0GH      -0.084300
     17 CBA         -0.6060     5.1880     2.7230 ca         1 0GH      -0.100000
     18 CBB         -1.8660     5.8010     2.8320 ca         1 0GH      -0.106500
     19 CBC         -2.9480     5.0930     3.3830 ca         1 0GH      -0.107000
     20 CBD         -2.7690     3.7710     3.8240 ca         1 0GH      -0.106500
     21 CBE         -1.5080     3.1590     3.7170 ca         1 0GH      -0.100000
     22 NAV          0.1500     1.7280     1.1870 ns         1 0GH      -0.502900
     23 CAT         -0.8880     2.0350     0.3320 c          1 0GH       0.615700
     24 OAU         -0.9930     3.1370    -0.1850 o          1 0GH      -0.561100
     25 CAP         -1.8660     0.9130     0.0470 ca         1 0GH      -0.149600
     26 CAQ         -1.6250    -0.4180     0.4660 ca         1 0GH      -0.068000
     27 CAO         -3.0450     1.1920    -0.6770 ca         1 0GH      -0.055000
     28 CAN         -3.9710     0.1780    -0.9800 ca         1 0GH       0.242000
     29 NAE         -5.1490     0.4790    -1.6930 nh         1 0GH      -0.771300
     30 CBT         -5.9960     1.6150    -1.2780 c3         1 0GH       0.193100
     31 SAB         -5.2490    -0.0380    -3.3420 s6         1 0GH       1.191100
     32 OAC         -4.2600     0.7530    -4.0810 o          1 0GH      -0.525500
     33 OAD         -5.1600    -1.5010    -3.3320 o          1 0GH      -0.525500
     34 CAA         -6.8810     0.4230    -3.9070 c3         1 0GH      -0.347100
     35 CAS         -3.7110    -1.1370    -0.5560 ca         1 0GH      -0.014000
     36 CAR         -2.5390    -1.4560     0.1630 ca         1 0GH      -0.149600
     37 CAL         -2.2930    -2.8940     0.5740 c          1 0GH       0.613700
     38 OAM         -3.0870    -3.7890     0.3220 o          1 0GH      -0.583100
     39 NBQ         -1.1130    -3.1480     1.2410 ns         1 0GH      -0.501900
     40 CBR         -0.6680    -4.4580     1.7070 c3         1 0GH       0.159000
     41 CBS         -1.4140    -4.8800     2.9900 c3         1 0GH      -0.109100
     42 CAI          0.8480    -4.4430     1.8980 ca         1 0GH      -0.097300
     43 CAH          1.6700    -5.2560     1.0900 ca         1 0GH      -0.104000
     44 CAG          3.0660    -5.2440     1.2560 ca         1 0GH      -0.111000
     45 CAF          3.6530    -4.4180     2.2290 ca         1 0GH      -0.094000
     46 CAK          2.8430    -3.5970     3.0300 ca         1 0GH      -0.111000
     47 CAJ          1.4470    -3.6080     2.8660 ca         1 0GH      -0.104000
     48 H1           9.8220     0.6490    -4.1240 hc         1 0GH       0.035533
     49 H2           8.5660    -0.4880    -4.6490 hc         1 0GH       0.035533
     50 H3           8.3800     1.2510    -4.9710 hc         1 0GH       0.035533
     51 H4           8.4250    -0.0750    -2.2070 hc         1 0GH       0.043700
     52 H5           7.8860     2.1620    -1.2620 hc         1 0GH       0.035533
     53 H6           9.4030     2.2260    -2.1720 hc         1 0GH       0.035533
     54 H7           7.9140     2.8760    -2.8890 hc         1 0GH       0.035533
     55 H8           6.0550     1.1860    -3.6790 h1         1 0GH       0.051200
     56 H9           6.3420    -0.5590    -3.4970 h1         1 0GH       0.051200
     57 H10          6.3560     0.4080    -0.8900 hn         1 0GH       0.321500
     58 H11          4.7970     0.7420     0.4980 h1         1 0GH       0.065700
     59 H12          3.1490    -0.8470     1.4270 h1         1 0GH       0.025700
     60 H13          2.4540    -1.6850    -1.4440 hc         1 0GH       0.052700
     61 H14          1.8810    -2.4320     0.0550 hc         1 0GH       0.052700
     62 H15          1.3720    -0.7890    -0.3590 hc         1 0GH       0.052700
     63 H16          4.1810    -2.7120     0.6600 ho         1 0GH       0.441000
     64 H17          1.9910     1.2230    -0.3200 hn         1 0GH       0.448000
     65 H19          2.5860     1.0860     2.1720 h1         1 0GH       0.027700
     66 H20          3.3860     2.6320     1.8560 h1         1 0GH       0.027700
     67 H21          1.2330     3.5120     0.9210 h1         1 0GH       0.109700
     68 H22          1.0310     2.3700     3.7490 hc         1 0GH       0.051200
     69 H23          1.7340     3.9090     3.2950 hc         1 0GH       0.051200
     70 H24          0.2250     5.7410     2.2910 ha         1 0GH       0.108500
     71 H25         -2.0040     6.8240     2.4880 ha         1 0GH       0.112000
     72 H26         -3.9240     5.5670     3.4650 ha         1 0GH       0.113000
     73 H27         -3.6060     3.2220     4.2490 ha         1 0GH       0.112000
     74 H28         -1.3800     2.1330     4.0570 ha         1 0GH       0.108500
     75 H29          0.1340     0.8100     1.6090 hn         1 0GH       0.296500
     76 H30         -0.7190    -0.6480     1.0160 ha         1 0GH       0.122000
     77 H31         -3.2460     2.2040    -1.0170 ha         1 0GH       0.145000
     78 H32         -5.8380     2.4820    -1.9340 h1         1 0GH       0.050367
     79 H33         -7.0570     1.3370    -1.2990 h1         1 0GH       0.050367
     80 H34         -5.7590     1.9170    -0.2490 h1         1 0GH       0.050367
     81 H35         -6.9550     1.5140    -3.8800 h1         1 0GH       0.103700
     82 H36         -6.9860     0.0500    -4.9300 h1         1 0GH       0.103700
     83 H37         -7.6070    -0.0500    -3.2390 h1         1 0GH       0.103700
     84 H38         -4.4360    -1.9130    -0.7870 ha         1 0GH       0.142000
     85 H39         -0.5000    -2.3630     1.4030 hn         1 0GH       0.307500
     86 H40         -0.9100    -5.1920     0.9260 h1         1 0GH       0.084700
     87 H41         -1.2640    -4.1500     3.7940 hc         1 0GH       0.045700
     88 H42         -2.4900    -4.9660     2.8030 hc         1 0GH       0.045700
     89 H43         -1.0510    -5.8540     3.3370 hc         1 0GH       0.045700
     90 H44          1.2280    -5.9010     0.3340 ha         1 0GH       0.111000
     91 H45          3.6920    -5.8790     0.6330 ha         1 0GH       0.113500
     92 H46          4.7330    -4.4170     2.3630 ha         1 0GH       0.117000
     93 H47          3.2970    -2.9540     3.7820 ha         1 0GH       0.113500
     94 H48          0.8330    -2.9670     3.4940 ha         1 0GH       0.111000
@<TRIPOS>BOND
     1     1     2 1   
     2     1    48 1   
     3     1    49 1   
     4     1    50 1   
     5     2     3 1   
     6     2     4 1   
     7     2    51 1   
     8     3    52 1   
     9     3    53 1   
    10     3    54 1   
    11     4     5 1   
    12     4    55 1   
    13     4    56 1   
    14     5     6 1   
    15     5    57 1   
    16     6     7 2   
    17     6     8 1   
    18     8     9 1   
    19     8    12 1   
    20     8    58 1   
    21     9    10 1   
    22     9    11 1   
    23     9    59 1   
    24    10    60 1   
    25    10    61 1   
    26    10    62 1   
    27    11    63 1   
    28    12    13 1   
    29    12    64 1   
    30    13    14 1   
    31    13    65 1   
    32    13    66 1   
    33    14    15 1   
    34    14    22 1   
    35    14    67 1   
    36    15    16 1   
    37    15    68 1   
    38    15    69 1   
    39    16    17 ar  
    40    16    21 ar  
    41    17    18 ar  
    42    17    70 1   
    43    18    19 ar  
    44    18    71 1   
    45    19    20 ar  
    46    19    72 1   
    47    20    21 ar  
    48    20    73 1   
    49    21    74 1   
    50    22    23 1   
    51    22    75 1   
    52    23    24 2   
    53    23    25 1   
    54    25    26 ar  
    55    25    27 ar  
    56    26    36 ar  
    57    26    76 1   
    58    27    28 ar  
    59    27    77 1   
    60    28    29 1   
    61    28    35 ar  
    62    29    30 1   
    63    29    31 1   
    64    30    78 1   
    65    30    79 1   
    66    30    80 1   
    67    31    32 2   
    68    31    33 2   
    69    31    34 1   
    70    34    81 1   
    71    34    82 1   
    72    34    83 1   
    73    35    36 ar  
    74    35    84 1   
    75    36    37 1   
    76    37    38 2   
    77    37    39 1   
    78    39    40 1   
    79    39    85 1   
    80    40    41 1   
    81    40    42 1   
    82    40    86 1   
    83    41    87 1   
    84    41    88 1   
    85    41    89 1   
    86    42    43 ar  
    87    42    47 ar  
    88    43    44 ar  
    89    43    90 1   
    90    44    45 ar  
    91    44    91 1   
    92    45    46 ar  
    93    45    92 1   
    94    46    47 ar  
    95    46    93 1   
    96    47    94 1   
@<TRIPOS>SUBSTRUCTURE
     1 0GH         1 TEMP              0 ****  ****    0 ROOT
