@<TRIPOS>MOLECULE
0GI
   40    41     1     0     0
SMALL
No Charge or Current Charge


@<TRIPOS>ATOM
      1 C10        -13.2700     8.9030    -7.4420 c3         1 0GI       0.017800
      2 C13        -18.8530     8.1040    -7.0290 c3         1 0GI      -0.003100
      3 C15        -19.0600    10.6660    -6.9030 c3         1 0GI      -0.088100
      4 C1         -17.6110     8.0380    -6.1440 ca         1 0GI      -0.176300
      5 C2         -17.7310     7.6660    -4.7820 ca         1 0GI      -0.036000
      6 C3         -16.5930     7.6010    -3.9350 ca         1 0GI      -0.240200
      7 C4         -15.3450     7.9200    -4.5160 ca         1 0GI      -0.011200
      8 C5         -15.2290     8.2740    -5.8310 ca         1 0GI      -0.108800
      9 C6         -16.3410     8.3500    -6.6810 ca         1 0GI       0.036000
     10 C7         -13.1030     8.3080    -4.8940 cc         1 0GI      -0.125300
     11 C8         -13.8200     8.5210    -6.0820 cd         1 0GI      -0.082400
     12 C9         -11.6310     8.4280    -4.6600 c          1 0GI       0.734200
     13 C11        -13.0530    10.4230    -7.6410 c3         1 0GI      -0.190400
     14 C12        -14.3900    11.1850    -7.6360 c          1 0GI       0.710000
     15 C14        -19.7760     9.3080    -6.7060 c3         1 0GI      -0.061700
     16 C16        -21.0840     9.2470    -7.5260 c3         1 0GI      -0.088100
     17 N1         -14.0850     7.9430    -3.9470 na         1 0GI      -0.163700
     18 N2         -16.7400     7.2080    -2.4940 no         1 0GI       0.712200
     19 O1         -10.8740     8.7420    -5.5660 o          1 0GI      -0.720500
     20 O2         -11.2270     8.1900    -3.5300 o          1 0GI      -0.720500
     21 O3         -14.7660    11.6970    -6.5930 o          1 0GI      -0.762000
     22 O4         -15.0140    11.2550    -8.6840 o          1 0GI      -0.762000
     23 O5         -15.7250     7.1590    -1.7840 o          1 0GI      -0.463500
     24 O6         -17.8740     6.9460    -2.0720 o          1 0GI      -0.463500
     25 H1         -13.9410     8.5410    -8.2300 hc         1 0GI       0.033200
     26 H2         -12.3260     8.3790    -7.6270 hc         1 0GI       0.033200
     27 H3         -19.4250     7.1760    -6.9090 hc         1 0GI       0.028200
     28 H4         -18.5670     8.1450    -8.0870 hc         1 0GI       0.028200
     29 H5         -18.1850    10.7480    -6.2460 hc         1 0GI       0.033033
     30 H6         -18.7230    10.7830    -7.9400 hc         1 0GI       0.033033
     31 H7         -19.7340    11.4970    -6.6640 hc         1 0GI       0.033033
     32 H8         -18.7190     7.4290    -4.3910 ha         1 0GI       0.112000
     33 H9         -16.2310     8.6440    -7.7220 ha         1 0GI       0.159000
     34 H10        -12.5840    10.5060    -8.6300 hc         1 0GI       0.024200
     35 H11        -12.4080    10.7610    -6.8220 hc         1 0GI       0.024200
     36 H12        -20.0580     9.2380    -5.6480 hc         1 0GI       0.034700
     37 H13        -21.7520    10.0730    -7.2530 hc         1 0GI       0.033033
     38 H14        -20.8760     9.3150    -8.6010 hc         1 0GI       0.033033
     39 H15        -21.6170     8.3070    -7.3380 hc         1 0GI       0.033033
     40 H16        -13.8940     7.7190    -2.9750 hn         1 0GI       0.382000
@<TRIPOS>BOND
     1     1    11 1   
     2     1    13 1   
     3     1    25 1   
     4     1    26 1   
     5     2     4 1   
     6     2    15 1   
     7     2    27 1   
     8     2    28 1   
     9     3    15 1   
    10     3    29 1   
    11     3    30 1   
    12     3    31 1   
    13     4     5 ar  
    14     4     9 ar  
    15     5     6 ar  
    16     5    32 1   
    17     6     7 ar  
    18     6    18 1   
    19     7     8 ar  
    20     7    17 1   
    21     8     9 ar  
    22     8    11 1   
    23     9    33 1   
    24    10    11 2   
    25    10    12 1   
    26    10    17 1   
    27    12    19 1   
    28    12    20 1   
    29    13    14 1   
    30    13    34 1   
    31    13    35 1   
    32    14    21 1   
    33    14    22 1   
    34    15    16 1   
    35    15    36 1   
    36    16    37 1   
    37    16    38 1   
    38    16    39 1   
    39    17    40 1   
    40    18    23 1   
    41    18    24 1   
@<TRIPOS>SUBSTRUCTURE
     1 0GI         1 TEMP              0 ****  ****    0 ROOT
