@<TRIPOS>MOLECULE
0GI
   40    41     1     0     0
SMALL
bcc


@<TRIPOS>ATOM
      1 C10        -13.2870     8.9790    -7.4290 c3         1 0GI       0.017800
      2 C13        -18.8550     8.1000    -6.9390 c3         1 0GI      -0.003100
      3 C15        -18.8110    10.6340    -6.9700 c3         1 0GI      -0.088100
      4 C1         -17.6040     7.9720    -6.1150 ca         1 0GI      -0.176300
      5 C2         -17.6950     7.5800    -4.7790 ca         1 0GI      -0.054000
      6 C3         -16.5730     7.5120    -3.9650 ca         1 0GI      -0.240200
      7 C4         -15.3170     7.8500    -4.4900 ca         1 0GI      -0.011200
      8 C5         -15.2180     8.2440    -5.8490 ca         1 0GI      -0.108800
      9 C6         -16.3590     8.2940    -6.6430 ca         1 0GI       0.018000
     10 C7         -13.1730     8.3040    -4.9350 cc         1 0GI      -0.125300
     11 C8         -13.8380     8.5250    -6.1150 cd         1 0GI      -0.082400
     12 C9         -11.7230     8.4190    -4.5350 c          1 0GI       0.944800
     13 C11        -13.3040    10.5030    -7.6160 c3         1 0GI      -0.190400
     14 C12        -14.7210    11.0710    -7.8130 c          1 0GI       0.920600
     15 C14        -19.6380     9.3920    -6.6620 c3         1 0GI      -0.061700
     16 C16        -20.9370     9.3920    -7.4580 c3         1 0GI      -0.088100
     17 N1         -14.0750     7.8970    -3.9760 na         1 0GI      -0.113400
     18 N2         -16.7140     7.1000    -2.6000 no         1 0GI       0.332200
     19 O1         -10.9270     8.8370    -5.3950 o          1 0GI      -0.825800
     20 O2         -11.4730     8.0780    -3.3620 o          1 0GI      -0.825800
     21 O3         -15.1460    11.8820    -6.9660 o          1 0GI      -0.867300
     22 O4         -15.3350    10.6650    -8.8260 o          1 0GI      -0.867300
     23 O5         -15.7100     7.0660    -1.9140 o          1 0GI      -0.273500
     24 O6         -17.8110     6.8030    -2.1820 o          1 0GI      -0.273500
     25 H1         -13.8560     8.5210    -8.2410 hc         1 0GI       0.033200
     26 H2         -12.2620     8.6230    -7.5250 hc         1 0GI       0.033200
     27 H3         -19.5110     7.2450    -6.7500 hc         1 0GI       0.028200
     28 H4         -18.5990     8.0650    -8.0020 hc         1 0GI       0.028200
     29 H5         -17.9260    10.7060    -6.3390 hc         1 0GI       0.033033
     30 H6         -18.4740    10.6310    -8.0100 hc         1 0GI       0.033033
     31 H7         -19.4010    11.5400    -6.8150 hc         1 0GI       0.033033
     32 H8         -18.6640     7.3240    -4.3700 ha         1 0GI       0.130000
     33 H9         -16.2790     8.6200    -7.6730 ha         1 0GI       0.177000
     34 H10        -12.7090    10.7380    -8.5050 hc         1 0GI       0.024200
     35 H11        -12.8040    10.9710    -6.7660 hc         1 0GI       0.024200
     36 H12        -19.8910     9.4050    -5.5950 hc         1 0GI       0.034700
     37 H13        -21.5330    10.2810    -7.2430 hc         1 0GI       0.033033
     38 H14        -20.7350     9.3820    -8.5320 hc         1 0GI       0.033033
     39 H15        -21.5480     8.5180    -7.2280 hc         1 0GI       0.033033
     40 H16        -13.8000     7.6720    -3.0340 hn         1 0GI       0.331700
@<TRIPOS>BOND
     1     1    11 1   
     2     1    13 1   
     3     1    25 1   
     4     1    26 1   
     5     2     4 1   
     6     2    15 1   
     7     2    27 1   
     8     2    28 1   
     9     3    15 1   
    10     3    29 1   
    11     3    30 1   
    12     3    31 1   
    13     4     5 ar  
    14     4     9 ar  
    15     5     6 ar  
    16     5    32 1   
    17     6     7 ar  
    18     6    18 1   
    19     7     8 ar  
    20     7    17 1   
    21     8     9 ar  
    22     8    11 1   
    23     9    33 1   
    24    10    11 2   
    25    10    12 1   
    26    10    17 1   
    27    12    19 1   
    28    12    20 1   
    29    13    14 1   
    30    13    34 1   
    31    13    35 1   
    32    14    21 1   
    33    14    22 1   
    34    15    16 1   
    35    15    36 1   
    36    16    37 1   
    37    16    38 1   
    38    16    39 1   
    39    17    40 1   
    40    18    23 1   
    41    18    24 1   
@<TRIPOS>SUBSTRUCTURE
     1 0GI         1 TEMP              0 ****  ****    0 ROOT
