@<TRIPOS>MOLECULE
0GJ
   53    52     1     0     0
SMALL
bcc


@<TRIPOS>ATOM
      1 N            5.4800    -0.1830     2.0950 n8         1 0GJ      -0.851800
      2 CA           4.4140    -0.1520     1.1190 c3         1 0GJ       0.088500
      3 C            3.0190    -0.1240     1.7460 c          1 0GJ       0.628100
      4 O            2.7770    -0.6350     2.8320 o          1 0GJ      -0.637100
      5 CB           4.5020    -1.3590     0.1750 c3         1 0GJ      -0.041400
      6 CG           5.7750    -1.3620    -0.6540 c3         1 0GJ      -0.205400
      7 CD           5.9290    -2.5420    -1.6290 c          1 0GJ       0.928600
      8 OE1          5.0610    -3.4370    -1.6070 o          1 0GJ      -0.846300
      9 OE2          6.9350    -2.5080    -2.3690 o          1 0GJ      -0.846300
     10 N1           2.0750     0.4750     1.0030 ns         1 0GJ      -0.570900
     11 CA1          0.6920     0.5150     1.3830 c3         1 0GJ       0.031000
     12 C1          -0.1570     0.9640     0.2060 c          1 0GJ       0.646100
     13 O1           0.2900     1.0270    -0.9280 o          1 0GJ      -0.573100
     14 N2          -1.4240     1.2660     0.5320 ns         1 0GJ      -0.594900
     15 CA2         -2.4640     1.5950    -0.4220 c3         1 0GJ       0.077700
     16 C2          -2.7830     3.1060    -0.3860 c3         1 0GJ       0.132100
     17 O2          -3.7760     3.4270    -1.3260 oh         1 0GJ      -0.574800
     18 CB1         -3.7050     0.7490    -0.1420 c3         1 0GJ      -0.088400
     19 CG1         -3.4380    -0.7440    -0.2720 c3         1 0GJ      -0.095400
     20 CD1         -4.7010    -1.5510    -0.0270 c3         1 0GJ       0.031300
     21 NE          -4.4150    -2.9690    -0.1640 nu         1 0GJ      -0.404100
     22 CZ          -5.2890    -3.9390     0.0670 cz         1 0GJ       0.530300
     23 NH1         -6.5240    -3.6510     0.4500 nv         1 0GJ      -0.512700
     24 NH2         -4.9260    -5.2060    -0.0930 nv         1 0GJ      -0.512700
     25 C3          -1.5470     3.9150    -0.7250 c3         1 0GJ       0.050000
     26 CL          -1.8980     5.6740    -0.6310 cl         1 0GJ      -0.187400
     27 H            5.4460     0.6470     2.6730 hn         1 0GJ       0.340300
     28 H2           5.3380    -0.9660     2.7230 hn         1 0GJ       0.340300
     29 HA           4.5360     0.7560     0.5180 h1         1 0GJ       0.061700
     30 HB2          4.4320    -2.2770     0.7670 hc         1 0GJ       0.043700
     31 HB3          3.6320    -1.3560    -0.4860 hc         1 0GJ       0.043700
     32 HG2          5.8370    -0.4300    -1.2290 hc         1 0GJ       0.030200
     33 HG3          6.6450    -1.3450     0.0080 hc         1 0GJ       0.030200
     34 H1           2.3190     0.8630     0.1050 hn         1 0GJ       0.346500
     35 HA2          0.3480    -0.4760     1.6960 h1         1 0GJ       0.056200
     36 HA3          0.5260     1.1850     2.2330 h1         1 0GJ       0.056200
     37 H3          -1.6910     1.2170     1.5050 hn         1 0GJ       0.312500
     38 HA1         -2.0870     1.3480    -1.4180 h1         1 0GJ       0.103700
     39 HB21        -4.0830     0.9770     0.8610 hc         1 0GJ       0.049700
     40 HB31        -4.4910     1.0290    -0.8450 hc         1 0GJ       0.049700
     41 HG21        -3.0580    -0.9590    -1.2750 hc         1 0GJ       0.072700
     42 HG31        -2.6690    -1.0580     0.4380 hc         1 0GJ       0.072700
     43 HD2         -5.0750    -1.3460     0.9800 h1         1 0GJ       0.061700
     44 HD3         -5.4770    -1.2540    -0.7380 h1         1 0GJ       0.061700
     45 HE          -3.4990    -3.2360    -0.4900 hn         1 0GJ       0.331700
     46 HH11        -6.8450    -2.7030     0.5490 hn         1 0GJ       0.328450
     47 HH12        -7.1870    -4.3780     0.6580 hn         1 0GJ       0.328450
     48 HH21        -3.9760    -5.4530    -0.3160 hn         1 0GJ       0.328450
     49 HH22        -5.5600    -5.9590     0.1070 hn         1 0GJ       0.328450
     50 H27         -3.0990     3.3660     0.6330 h1         1 0GJ       0.039700
     51 H28         -4.6400     3.2850    -0.9300 ho         1 0GJ       0.401000
     52 H11         -0.7430     3.7210    -0.0210 h1         1 0GJ       0.087200
     53 H21         -1.1960     3.7080    -1.7350 h1         1 0GJ       0.087200
@<TRIPOS>BOND
     1     1     2 1   
     2     1    27 1   
     3     1    28 1   
     4     2     3 1   
     5     2     5 1   
     6     2    29 1   
     7     3     4 2   
     8     3    10 1   
     9     5     6 1   
    10     5    30 1   
    11     5    31 1   
    12     6     7 1   
    13     6    32 1   
    14     6    33 1   
    15     7     8 1   
    16     7     9 1   
    17    10    11 1   
    18    10    34 1   
    19    11    12 1   
    20    11    35 1   
    21    11    36 1   
    22    12    13 2   
    23    12    14 1   
    24    14    15 1   
    25    14    37 1   
    26    15    16 1   
    27    15    18 1   
    28    15    38 1   
    29    16    17 1   
    30    16    25 1   
    31    16    50 1   
    32    17    51 1   
    33    18    19 1   
    34    18    39 1   
    35    18    40 1   
    36    19    20 1   
    37    19    41 1   
    38    19    42 1   
    39    20    21 1   
    40    20    43 1   
    41    20    44 1   
    42    21    22 2   
    43    21    45 1   
    44    22    23 1   
    45    22    24 1   
    46    23    46 1   
    47    23    47 1   
    48    24    48 1   
    49    24    49 1   
    50    25    26 1   
    51    25    52 1   
    52    25    53 1   
@<TRIPOS>SUBSTRUCTURE
     1 0GJ         1 TEMP              0 ****  ****    0 ROOT
