@<TRIPOS>MOLECULE
0GM
  123   128     1     0     0
SMALL
abcg2


@<TRIPOS>ATOM
      1 C            1.4460     0.7750    -0.8160 c          1 0GM       0.603100
      2 O            0.8240     1.6190    -1.4440 o          1 0GM      -0.624100
      3 CA           2.8920     0.4440    -1.1310 c3         1 0GM      -0.138700
      4 CB1          3.0020     0.0230    -2.6080 c3         1 0GM      -0.024100
      5 C1A          4.3740    -0.4880    -2.9470 ca         1 0GM      -0.079300
      6 C2A          5.2390     0.2950    -3.6680 ca         1 0GM      -0.100500
      7 C3A          6.5560    -0.1190    -3.9500 ca         1 0GM      -0.105000
      8 C4A          7.0080    -1.3250    -3.4950 ca         1 0GM      -0.093000
      9 C11          6.1530    -2.1730    -2.7530 ca         1 0GM      -0.037500
     10 C5A          6.6050    -3.4260    -2.2750 ca         1 0GM      -0.096500
     11 C6A          5.7740    -4.2490    -1.5650 ca         1 0GM      -0.109000
     12 C7A          4.4450    -3.8550    -1.3120 ca         1 0GM      -0.105000
     13 C8A          3.9820    -2.6480    -1.7600 ca         1 0GM      -0.108000
     14 C12          4.8180    -1.7640    -2.4850 ca         1 0GM      -0.030500
     15 CB2          3.7950     1.6370    -0.7930 c3         1 0GM      -0.024100
     16 C1B          3.8770     1.8650     0.6890 ca         1 0GM      -0.079300
     17 C2B          3.1570     2.8730     1.2750 ca         1 0GM      -0.100500
     18 C3B          3.1650     3.0740     2.6690 ca         1 0GM      -0.105000
     19 C4B          3.9020     2.2560     3.4760 ca         1 0GM      -0.093000
     20 C13          4.6640     1.2020     2.9200 ca         1 0GM      -0.037500
     21 C5B          5.4330     0.3440     3.7420 ca         1 0GM      -0.096500
     22 C6B          6.1670    -0.6750     3.2020 ca         1 0GM      -0.109000
     23 C7B          6.1680    -0.8770     1.8080 ca         1 0GM      -0.105000
     24 C8B          5.4370    -0.0610     0.9880 ca         1 0GM      -0.108000
     25 C14          4.6590     1.0010     1.5130 ca         1 0GM      -0.030500
     26 N            0.8930     0.0470     0.1710 ns         1 0GM      -0.497900
     27 CA1         -0.4990     0.1630     0.5420 c3         1 0GM       0.034700
     28 C1          -0.6790     1.2780     1.5780 c          1 0GM       0.592100
     29 O1          -0.3830     1.1010     2.7480 o          1 0GM      -0.592100
     30 CB          -1.0320    -1.1560     1.0810 c3         1 0GM      -0.080400
     31 CG          -0.9250    -2.2820     0.0580 c3         1 0GM      -0.157400
     32 CD          -1.7270    -3.4940     0.4870 c          1 0GM       0.597100
     33 OE1         -1.8810    -3.7850     1.6640 o          1 0GM      -0.585100
     34 N1          -1.1770     2.4280     1.0890 ns         1 0GM      -0.496900
     35 CA2         -1.3510     3.6270     1.8850 c3         1 0GM       0.113700
     36 CB3         -0.4330     4.7350     1.3690 c3         1 0GM      -0.089400
     37 CG1         -0.4460     6.0370     2.1710 c3         1 0GM      -0.056700
     38 CD1         -0.0310     5.8290     3.6240 c3         1 0GM      -0.090100
     39 CD2          0.4680     7.0580     1.4990 c3         1 0GM      -0.090100
     40 CH          -2.8180     4.0560     1.9810 c3         1 0GM       0.164300
     41 OH          -3.2200     4.6610     0.7660 oh         1 0GM      -0.671000
     42 CM          -3.7410     2.9090     2.4070 c3         1 0GM      -0.188400
     43 C2          -4.0160     1.7890     1.4200 c          1 0GM       0.618100
     44 O2          -3.9620     0.6100     1.7490 o          1 0GM      -0.612100
     45 N2          -4.4240     2.1670     0.1980 ns         1 0GM      -0.496900
     46 CA3         -4.8380     1.2280    -0.8160 c3         1 0GM       0.047700
     47 C3          -5.9350     0.3190    -0.2350 c          1 0GM       0.606100
     48 O3          -6.8020     0.7730     0.4940 o          1 0GM      -0.600100
     49 CB4         -3.6550     0.5250    -1.4950 c3         1 0GM      -0.104400
     50 CG2         -3.9040     0.0630    -2.9390 c3         1 0GM      -0.064700
     51 CD3         -3.8180     1.2350    -3.9120 c3         1 0GM      -0.090600
     52 CD4         -2.9100    -1.0300    -3.3180 c3         1 0GM      -0.090600
     53 N3          -5.9220    -0.9650    -0.6190 ns         1 0GM      -0.504900
     54 CA4         -6.8840    -1.9470    -0.1610 c3         1 0GM       0.153300
     55 CG3         -6.4060    -3.3280    -0.5250 ca         1 0GM      -0.106300
     56 CD5         -5.0930    -3.7000    -0.2520 ca         1 0GM      -0.092000
     57 CD6         -7.2480    -4.2400    -1.1500 ca         1 0GM      -0.097000
     58 CE1         -4.6000    -4.9470    -0.6160 ca         1 0GM      -0.111300
     59 CE2         -6.7770    -5.5010    -1.4920 ca         1 0GM      -0.110000
     60 CZ          -5.4580    -5.8490    -1.2370 ca         1 0GM      -0.102000
     61 CB5         -3.1610    -5.3200    -0.3410 c3         1 0GM       0.145300
     62 N4          -2.2590    -4.2080    -0.5230 ns         1 0GM      -0.513900
     63 HA           3.2070    -0.4010    -0.5120 hc         1 0GM       0.066700
     64 HB1          2.2470    -0.7370    -2.8260 hc         1 0GM       0.061450
     65 HB1A         2.7640     0.8800    -3.2410 hc         1 0GM       0.061450
     66 H2A          4.9070     1.2630    -4.0250 ha         1 0GM       0.115000
     67 H3A          7.2070     0.5280    -4.5240 ha         1 0GM       0.115000
     68 H4A          8.0220    -1.6460    -3.6980 ha         1 0GM       0.115000
     69 H5A          7.6250    -3.7250    -2.4820 ha         1 0GM       0.113500
     70 H6A          6.1300    -5.2040    -1.2020 ha         1 0GM       0.114500
     71 H7A          3.7880    -4.5130    -0.7590 ha         1 0GM       0.114000
     72 H8A          2.9530    -2.3780    -1.5600 ha         1 0GM       0.114000
     73 HB2          4.7900     1.4610    -1.2070 hc         1 0GM       0.061450
     74 HB2A         3.4160     2.5320    -1.2920 hc         1 0GM       0.061450
     75 H2B          2.5660     3.5280     0.6460 ha         1 0GM       0.115000
     76 H3B          2.5860     3.8810     3.0990 ha         1 0GM       0.115000
     77 H4B          3.9130     2.4050     4.5490 ha         1 0GM       0.115000
     78 H5B          5.4310     0.5100     4.8130 ha         1 0GM       0.113500
     79 H6B          6.7500    -1.3260     3.8410 ha         1 0GM       0.114500
     80 H7B          6.7520    -1.6840     1.3820 ha         1 0GM       0.114000
     81 H8B          5.4630    -0.2400    -0.0800 ha         1 0GM       0.114000
     82 HN           1.4830    -0.5540     0.7250 hn         1 0GM       0.331500
     83 HA1         -1.0480     0.4180    -0.3660 h1         1 0GM       0.071700
     84 HB          -2.0760    -0.9950     1.3530 hc         1 0GM       0.091200
     85 HBA         -0.5060    -1.4260     1.9980 hc         1 0GM       0.091200
     86 HG          -1.2590    -1.9370    -0.9260 hc         1 0GM       0.053200
     87 HGA          0.1160    -2.5920    -0.0740 hc         1 0GM       0.053200
     88 HN1         -1.2710     2.5100     0.0880 hn         1 0GM       0.328500
     89 HA2         -1.0510     3.3570     2.8980 h1         1 0GM       0.087700
     90 HB3          0.5870     4.3380     1.3630 hc         1 0GM       0.053700
     91 HB3A        -0.6790     4.9520     0.3260 hc         1 0GM       0.053700
     92 HG1         -1.4620     6.4450     2.1600 hc         1 0GM       0.040700
     93 HD1         -0.0430     6.7720     4.1720 hc         1 0GM       0.034367
     94 HD1A        -0.6880     5.1400     4.1580 hc         1 0GM       0.034367
     95 HD1B         0.9840     5.4290     3.6890 hc         1 0GM       0.034367
     96 HD2          0.1580     7.2530     0.4710 hc         1 0GM       0.034367
     97 HD2A         0.4620     8.0090     2.0350 hc         1 0GM       0.034367
     98 HD2B         1.5000     6.7000     1.4730 hc         1 0GM       0.034367
     99 HH          -2.8660     4.7930     2.7900 h1         1 0GM       0.041700
    100 HOH         -3.9030     5.3120     0.9570 ho         1 0GM       0.447000
    101 HM          -4.7120     3.3380     2.6790 hc         1 0GM       0.078700
    102 HMA         -3.3410     2.4610     3.3170 hc         1 0GM       0.078700
    103 HN2         -4.3850     3.1460    -0.0370 hn         1 0GM       0.337500
    104 HA3         -5.3500     1.8310    -1.5730 h1         1 0GM       0.067700
    105 HB4         -2.8220     1.2330    -1.5160 hc         1 0GM       0.056200
    106 HB4A        -3.3120    -0.3080    -0.8720 hc         1 0GM       0.056200
    107 H17         -4.9140    -0.3540    -3.0290 hc         1 0GM       0.046700
    108 HD3         -2.8130     1.6650    -3.9110 hc         1 0GM       0.035533
    109 HD3A        -4.0440     0.9140    -4.9290 hc         1 0GM       0.035533
    110 H13         -4.5190     2.0320    -3.6590 hc         1 0GM       0.035533
    111 HD4         -3.0190    -1.9080    -2.6740 hc         1 0GM       0.035533
    112 HD4A        -3.0520    -1.3630    -4.3460 hc         1 0GM       0.035533
    113 HD4B        -1.8810    -0.6740    -3.2220 hc         1 0GM       0.035533
    114 HN3         -5.2140    -1.2900    -1.2520 hn         1 0GM       0.318500
    115 HA4         -6.9980    -1.8590     0.9220 h1         1 0GM       0.062200
    116 HA4A        -7.8690    -1.7610    -0.5990 h1         1 0GM       0.062200
    117 HD5         -4.4440    -2.9920     0.2520 ha         1 0GM       0.129000
    118 HD6         -8.2700    -3.9640    -1.3810 ha         1 0GM       0.116000
    119 HE2         -7.4340    -6.2060    -1.9830 ha         1 0GM       0.115000
    120 HZ          -5.0910    -6.8240    -1.5360 ha         1 0GM       0.111000
    121 HB5         -2.8610    -6.1380    -0.9970 h1         1 0GM       0.067700
    122 HB5A        -3.0550    -5.6820     0.6810 h1         1 0GM       0.067700
    123 HN4         -2.0900    -3.9060    -1.4690 hn         1 0GM       0.308500
@<TRIPOS>BOND
     1     1     2 2   
     2     1     3 1   
     3     1    26 1   
     4     3     4 1   
     5     3    15 1   
     6     3    63 1   
     7     4     5 1   
     8     4    64 1   
     9     4    65 1   
    10     5     6 ar  
    11     5    14 ar  
    12     6     7 ar  
    13     6    66 1   
    14     7     8 ar  
    15     7    67 1   
    16     8     9 ar  
    17     8    68 1   
    18     9    10 ar  
    19     9    14 ar  
    20    10    11 ar  
    21    10    69 1   
    22    11    12 ar  
    23    11    70 1   
    24    12    13 ar  
    25    12    71 1   
    26    13    14 ar  
    27    13    72 1   
    28    15    16 1   
    29    15    73 1   
    30    15    74 1   
    31    16    17 ar  
    32    16    25 ar  
    33    17    18 ar  
    34    17    75 1   
    35    18    19 ar  
    36    18    76 1   
    37    19    20 ar  
    38    19    77 1   
    39    20    21 ar  
    40    20    25 ar  
    41    21    22 ar  
    42    21    78 1   
    43    22    23 ar  
    44    22    79 1   
    45    23    24 ar  
    46    23    80 1   
    47    24    25 ar  
    48    24    81 1   
    49    26    27 1   
    50    26    82 1   
    51    27    28 1   
    52    27    30 1   
    53    27    83 1   
    54    28    29 2   
    55    28    34 1   
    56    30    31 1   
    57    30    84 1   
    58    30    85 1   
    59    31    32 1   
    60    31    86 1   
    61    31    87 1   
    62    32    33 2   
    63    32    62 1   
    64    34    35 1   
    65    34    88 1   
    66    35    36 1   
    67    35    40 1   
    68    35    89 1   
    69    36    37 1   
    70    36    90 1   
    71    36    91 1   
    72    37    38 1   
    73    37    39 1   
    74    37    92 1   
    75    38    93 1   
    76    38    94 1   
    77    38    95 1   
    78    39    96 1   
    79    39    97 1   
    80    39    98 1   
    81    40    41 1   
    82    40    42 1   
    83    40    99 1   
    84    41   100 1   
    85    42    43 1   
    86    42   101 1   
    87    42   102 1   
    88    43    44 2   
    89    43    45 1   
    90    45    46 1   
    91    45   103 1   
    92    46    47 1   
    93    46    49 1   
    94    46   104 1   
    95    47    48 2   
    96    47    53 1   
    97    49    50 1   
    98    49   105 1   
    99    49   106 1   
   100    50    51 1   
   101    50    52 1   
   102    50   107 1   
   103    51   108 1   
   104    51   109 1   
   105    51   110 1   
   106    52   111 1   
   107    52   112 1   
   108    52   113 1   
   109    53    54 1   
   110    53   114 1   
   111    54    55 1   
   112    54   115 1   
   113    54   116 1   
   114    55    56 ar  
   115    55    57 ar  
   116    56    58 ar  
   117    56   117 1   
   118    57    59 ar  
   119    57   118 1   
   120    58    60 ar  
   121    58    61 1   
   122    59    60 ar  
   123    59   119 1   
   124    60   120 1   
   125    61    62 1   
   126    61   121 1   
   127    61   122 1   
   128    62   123 1   
@<TRIPOS>SUBSTRUCTURE
     1 0GM         1 TEMP              0 ****  ****    0 ROOT
