@<TRIPOS>MOLECULE
0GM
  123   128     1     0     0
SMALL
No Charge or Current Charge


@<TRIPOS>ATOM
      1 C            1.7920     0.8660    -1.1980 c          1 0GM       0.603100
      2 O            1.2220     1.7020    -1.8850 o          1 0GM      -0.624100
      3 CA           3.2710     0.4920    -1.3910 c3         1 0GM      -0.138700
      4 CB1          3.5160    -0.0710    -2.8170 c3         1 0GM      -0.024100
      5 C1A          4.9010    -0.7090    -2.9760 ca         1 0GM      -0.079300
      6 C2A          5.8900     0.0170    -3.6710 ca         1 0GM      -0.100500
      7 C3A          7.1880    -0.4920    -3.8170 ca         1 0GM      -0.105000
      8 C4A          7.5180    -1.7380    -3.2680 ca         1 0GM      -0.093000
      9 C11          6.5470    -2.4840    -2.5770 ca         1 0GM      -0.037500
     10 C5A          6.8980    -3.7340    -2.0320 ca         1 0GM      -0.096500
     11 C6A          5.9460    -4.4980    -1.3400 ca         1 0GM      -0.109000
     12 C7A          4.6370    -4.0160    -1.1950 ca         1 0GM      -0.105000
     13 C8A          4.2780    -2.7700    -1.7360 ca         1 0GM      -0.108000
     14 C12          5.2290    -1.9820    -2.4300 ca         1 0GM      -0.030500
     15 CB2          4.1910     1.6920    -1.0340 c3         1 0GM      -0.024100
     16 C1B          4.2210     1.9600     0.4720 ca         1 0GM      -0.079300
     17 C2B          3.4500     3.0290     0.9750 ca         1 0GM      -0.100500
     18 C3B          3.4290     3.3130     2.3490 ca         1 0GM      -0.105000
     19 C4B          4.1740     2.5290     3.2400 ca         1 0GM      -0.093000
     20 C13          4.9470     1.4570     2.7600 ca         1 0GM      -0.037500
     21 C5B          5.6860     0.6780     3.6720 ca         1 0GM      -0.096500
     22 C6B          6.4620    -0.3990     3.2170 ca         1 0GM      -0.109000
     23 C7B          6.5040    -0.6990     1.8470 ca         1 0GM      -0.105000
     24 C8B          5.7720     0.0740     0.9310 ca         1 0GM      -0.108000
     25 C14          4.9800     1.1630     1.3740 ca         1 0GM      -0.030500
     26 N            1.1450     0.1830    -0.1940 ns         1 0GM      -0.497900
     27 CA1         -0.2780     0.3640     0.1580 c3         1 0GM       0.034700
     28 C1          -0.3960     1.4560     1.2580 c          1 0GM       0.592100
     29 O1           0.2650     1.4290     2.2890 o          1 0GM      -0.592100
     30 CB          -0.8970    -0.9790     0.6240 c3         1 0GM      -0.080400
     31 CG          -0.7180    -2.1540    -0.3770 c3         1 0GM      -0.157400
     32 CD          -1.3430    -3.4470     0.1590 c          1 0GM       0.597100
     33 OE1         -0.8500    -4.0850     1.0770 o          1 0GM      -0.585100
     34 N1          -1.3010     2.4650     1.0020 ns         1 0GM      -0.496900
     35 CA2         -1.5340     3.6180     1.8800 c3         1 0GM       0.113700
     36 CB3         -0.3920     4.6550     1.6540 c3         1 0GM      -0.089400
     37 CG1         -0.3540     5.8780     2.6150 c3         1 0GM      -0.056700
     38 CD1         -0.2410     5.4670     4.1020 c3         1 0GM      -0.090100
     39 CD2          0.7880     6.8440     2.2260 c3         1 0GM      -0.090100
     40 CH          -2.9700     4.2140     1.6850 c3         1 0GM       0.164300
     41 OH          -3.2170     4.4980     0.3010 oh         1 0GM      -0.671000
     42 CM          -4.1340     3.3470     2.2240 c3         1 0GM      -0.188400
     43 C2          -4.3560     2.0480     1.4500 c          1 0GM       0.618100
     44 O2          -3.8150     0.9960     1.7570 o          1 0GM      -0.612100
     45 N2          -5.2490     2.1510     0.4050 ns         1 0GM      -0.496900
     46 CA3         -5.6180     1.0630    -0.5320 c3         1 0GM       0.047700
     47 C3          -6.5700     0.0220     0.1500 c          1 0GM       0.606100
     48 O3          -7.0640     0.1800     1.2610 o          1 0GM      -0.600100
     49 CB4         -4.3650     0.4310    -1.2220 c3         1 0GM      -0.104400
     50 CG2         -4.5270     0.0650    -2.7260 c3         1 0GM      -0.064700
     51 CD3         -4.6520     1.3190    -3.6260 c3         1 0GM      -0.090600
     52 CD4         -3.3620    -0.8300    -3.2030 c3         1 0GM      -0.090600
     53 N3          -6.8220    -1.1120    -0.5900 ns         1 0GM      -0.504900
     54 CA4         -7.5350    -2.2940    -0.1110 c3         1 0GM       0.153300
     55 CG3         -6.7880    -3.5460    -0.5430 ca         1 0GM      -0.106300
     56 CD5         -5.4590    -3.7400    -0.1220 ca         1 0GM      -0.092000
     57 CD6         -7.3920    -4.4950    -1.3890 ca         1 0GM      -0.097000
     58 CE1         -4.7240    -4.8600    -0.5540 ca         1 0GM      -0.111300
     59 CE2         -6.6690    -5.6240    -1.8110 ca         1 0GM      -0.110000
     60 CZ          -5.3370    -5.8050    -1.3990 ca         1 0GM      -0.102000
     61 CB5         -3.2760    -5.0270    -0.1180 c3         1 0GM       0.145300
     62 N4          -2.4850    -3.8540    -0.4880 ns         1 0GM      -0.513900
     63 HA           3.4980    -0.3090    -0.6800 hc         1 0GM       0.066700
     64 HB1          2.7370    -0.8030    -3.0640 hc         1 0GM       0.061450
     65 HB1A         3.3820     0.7400    -3.5450 hc         1 0GM       0.061450
     66 H2A          5.6560     0.9920    -4.0930 ha         1 0GM       0.115000
     67 H3A          7.9410     0.0830    -4.3520 ha         1 0GM       0.115000
     68 H4A          8.5280    -2.1240    -3.3820 ha         1 0GM       0.115000
     69 H5A          7.9110    -4.1160    -2.1440 ha         1 0GM       0.113500
     70 H6A          6.2220    -5.4630    -0.9210 ha         1 0GM       0.114500
     71 H7A          3.8970    -4.6100    -0.6630 ha         1 0GM       0.114000
     72 H8A          3.2530    -2.4380    -1.6070 ha         1 0GM       0.114000
     73 HB2          5.2100     1.5150    -1.3940 hc         1 0GM       0.061450
     74 HB2A         3.8520     2.5810    -1.5810 hc         1 0GM       0.061450
     75 H2B          2.8590     3.6420     0.2990 ha         1 0GM       0.115000
     76 H3B          2.8320     4.1400     2.7250 ha         1 0GM       0.115000
     77 H4B          4.1480     2.7560     4.3030 ha         1 0GM       0.115000
     78 H5B          5.6580     0.9050     4.7350 ha         1 0GM       0.113500
     79 H6B          7.0300    -0.9990     3.9240 ha         1 0GM       0.114500
     80 H7B          7.1050    -1.5340     1.4930 ha         1 0GM       0.114000
     81 H8B          5.8340    -0.1920    -0.1190 ha         1 0GM       0.114000
     82 HN           1.7050    -0.4540     0.3590 hn         1 0GM       0.331500
     83 HA1         -0.8240     0.7090    -0.7300 h1         1 0GM       0.071700
     84 HB          -1.9670    -0.8280     0.8160 hc         1 0GM       0.091200
     85 HBA         -0.4500    -1.2620     1.5860 hc         1 0GM       0.091200
     86 HG          -1.1780    -1.8760    -1.3310 hc         1 0GM       0.053200
     87 HGA          0.3520    -2.3370    -0.5280 hc         1 0GM       0.053200
     88 HN1         -1.8160     2.4210     0.1320 hn         1 0GM       0.328500
     89 HA2         -1.4670     3.2600     2.9160 h1         1 0GM       0.087700
     90 HB3          0.5690     4.1350     1.7360 hc         1 0GM       0.053700
     91 HB3A        -0.4440     5.0170     0.6190 hc         1 0GM       0.053700
     92 HG1         -1.2860     6.4430     2.4980 hc         1 0GM       0.040700
     93 HD1         -0.1580     6.3530     4.7430 hc         1 0GM       0.034367
     94 HD1A        -1.1270     4.9100     4.4280 hc         1 0GM       0.034367
     95 HD1B         0.6430     4.8410     4.2690 hc         1 0GM       0.034367
     96 HD2          0.6790     7.1770     1.1870 hc         1 0GM       0.034367
     97 HD2A         0.7790     7.7350     2.8670 hc         1 0GM       0.034367
     98 HD2B         1.7660     6.3590     2.3300 hc         1 0GM       0.034367
     99 HH          -3.0180     5.1490     2.2580 h1         1 0GM       0.041700
    100 HOH         -2.6470     5.2590     0.0530 ho         1 0GM       0.447000
    101 HM          -5.0350     3.9650     2.1400 hc         1 0GM       0.078700
    102 HMA         -3.9400     3.1100     3.2760 hc         1 0GM       0.078700
    103 HN2         -5.6130     3.0800     0.2300 hn         1 0GM       0.337500
    104 HA3         -6.2300     1.5330    -1.3110 h1         1 0GM       0.067700
    105 HB4         -3.5230     1.1300    -1.1460 hc         1 0GM       0.056200
    106 HB4A        -4.0620    -0.4580    -0.6540 hc         1 0GM       0.056200
    107 H17         -5.4460    -0.5180    -2.8540 hc         1 0GM       0.046700
    108 HD3         -3.7650     1.9560    -3.5320 hc         1 0GM       0.035533
    109 HD3A        -4.7520     1.0280    -4.6790 hc         1 0GM       0.035533
    110 H13         -5.5320     1.9160    -3.3650 hc         1 0GM       0.035533
    111 HD4         -3.3330    -1.7630    -2.6290 hc         1 0GM       0.035533
    112 HD4A        -3.4810    -1.0920    -4.2610 hc         1 0GM       0.035533
    113 HD4B        -2.3990    -0.3170    -3.0820 hc         1 0GM       0.035533
    114 HN3         -6.3790    -1.1690    -1.4970 hn         1 0GM       0.318500
    115 HA4         -7.6100    -2.2760     0.9840 h1         1 0GM       0.062200
    116 HA4A        -8.5520    -2.2890    -0.5260 h1         1 0GM       0.062200
    117 HD5         -4.9890    -3.0070     0.5300 ha         1 0GM       0.129000
    118 HD6         -8.4180    -4.3570    -1.7260 ha         1 0GM       0.116000
    119 HE2         -7.1380    -6.3550    -2.4660 ha         1 0GM       0.115000
    120 HZ          -4.7830    -6.6760    -1.7410 ha         1 0GM       0.111000
    121 HB5         -2.8350    -5.9160    -0.5880 h1         1 0GM       0.067700
    122 HB5A        -3.2430    -5.1650     0.9720 h1         1 0GM       0.067700
    123 HN4         -2.8140    -3.2770    -1.2500 hn         1 0GM       0.308500
@<TRIPOS>BOND
     1     1     2 2   
     2     1     3 1   
     3     1    26 1   
     4     3     4 1   
     5     3    15 1   
     6     3    63 1   
     7     4     5 1   
     8     4    64 1   
     9     4    65 1   
    10     5     6 ar  
    11     5    14 ar  
    12     6     7 ar  
    13     6    66 1   
    14     7     8 ar  
    15     7    67 1   
    16     8     9 ar  
    17     8    68 1   
    18     9    10 ar  
    19     9    14 ar  
    20    10    11 ar  
    21    10    69 1   
    22    11    12 ar  
    23    11    70 1   
    24    12    13 ar  
    25    12    71 1   
    26    13    14 ar  
    27    13    72 1   
    28    15    16 1   
    29    15    73 1   
    30    15    74 1   
    31    16    17 ar  
    32    16    25 ar  
    33    17    18 ar  
    34    17    75 1   
    35    18    19 ar  
    36    18    76 1   
    37    19    20 ar  
    38    19    77 1   
    39    20    21 ar  
    40    20    25 ar  
    41    21    22 ar  
    42    21    78 1   
    43    22    23 ar  
    44    22    79 1   
    45    23    24 ar  
    46    23    80 1   
    47    24    25 ar  
    48    24    81 1   
    49    26    27 1   
    50    26    82 1   
    51    27    28 1   
    52    27    30 1   
    53    27    83 1   
    54    28    29 2   
    55    28    34 1   
    56    30    31 1   
    57    30    84 1   
    58    30    85 1   
    59    31    32 1   
    60    31    86 1   
    61    31    87 1   
    62    32    33 2   
    63    32    62 1   
    64    34    35 1   
    65    34    88 1   
    66    35    36 1   
    67    35    40 1   
    68    35    89 1   
    69    36    37 1   
    70    36    90 1   
    71    36    91 1   
    72    37    38 1   
    73    37    39 1   
    74    37    92 1   
    75    38    93 1   
    76    38    94 1   
    77    38    95 1   
    78    39    96 1   
    79    39    97 1   
    80    39    98 1   
    81    40    41 1   
    82    40    42 1   
    83    40    99 1   
    84    41   100 1   
    85    42    43 1   
    86    42   101 1   
    87    42   102 1   
    88    43    44 2   
    89    43    45 1   
    90    45    46 1   
    91    45   103 1   
    92    46    47 1   
    93    46    49 1   
    94    46   104 1   
    95    47    48 2   
    96    47    53 1   
    97    49    50 1   
    98    49   105 1   
    99    49   106 1   
   100    50    51 1   
   101    50    52 1   
   102    50   107 1   
   103    51   108 1   
   104    51   109 1   
   105    51   110 1   
   106    52   111 1   
   107    52   112 1   
   108    52   113 1   
   109    53    54 1   
   110    53   114 1   
   111    54    55 1   
   112    54   115 1   
   113    54   116 1   
   114    55    56 ar  
   115    55    57 ar  
   116    56    58 ar  
   117    56   117 1   
   118    57    59 ar  
   119    57   118 1   
   120    58    60 ar  
   121    58    61 1   
   122    59    60 ar  
   123    59   119 1   
   124    60   120 1   
   125    61    62 1   
   126    61   121 1   
   127    61   122 1   
   128    62   123 1   
@<TRIPOS>SUBSTRUCTURE
     1 0GM         1 TEMP              0 ****  ****    0 ROOT
