@<TRIPOS>MOLECULE
0GO
   88    91     1     0     0
SMALL
abcg2


@<TRIPOS>ATOM
      1 N1          28.9550    77.7770    15.3410 n3         1 0GO      -0.712600
      2 C2          30.3550    77.3720    15.4440 c5         1 0GO       0.114200
      3 C3          30.9930    78.1360    14.2660 c5         1 0GO      -0.068400
      4 C4          30.2680    79.4890    14.2740 c5         1 0GO      -0.083400
      5 C5          28.9280    79.2040    14.9740 c5         1 0GO       0.171800
      6 C6          31.0760    77.6430    16.7800 c5         1 0GO      -0.119400
      7 C7          32.1280    76.5370    16.8790 c5         1 0GO       0.097000
      8 N8          31.5740    75.4640    16.0490 n          1 0GO      -0.430800
      9 C9          30.5920    75.8730    15.2110 c          1 0GO       0.564000
     10 O10         30.0390    75.1740    14.3700 o          1 0GO      -0.534000
     11 C11         32.2060    74.1610    15.9470 c3         1 0GO       0.034700
     12 C12         31.9830    73.3140    17.2130 c          1 0GO       0.587100
     13 N13         30.8020    73.5070    17.8220 ns         1 0GO      -0.496900
     14 O14         32.8150    72.4890    17.5840 o          1 0GO      -0.607100
     15 C15         28.0490    77.4910    16.4470 c3         1 0GO       0.180800
     16 C16         27.9320    76.0220    16.8270 c3         1 0GO      -0.084400
     17 C17         26.8760    75.7950    17.9040 c3         1 0GO      -0.091100
     18 C18         33.6820    74.2570    15.5760 c3         1 0GO      -0.092100
     19 C19         30.3810    72.8340    19.0380 c3         1 0GO       0.080700
     20 C20         29.2660    71.8120    18.7280 c3         1 0GO       0.163300
     21 C21         29.7420    70.7110    17.7970 c3         1 0GO       0.156800
     22 N22         28.6260    69.9430    17.2510 n7         1 0GO      -0.853400
     23 C23         29.0640    68.9040    16.3170 c3         1 0GO       0.208100
     24 C24         29.9110    73.8680    20.0730 c3         1 0GO      -0.050100
     25 C25         30.8670    75.0150    20.2800 ca         1 0GO      -0.077300
     26 C26         30.4190    76.3300    20.1650 ca         1 0GO      -0.107500
     27 C27         31.2860    77.4020    20.3560 ca         1 0GO      -0.112000
     28 C28         32.6230    77.1720    20.6570 ca         1 0GO      -0.115000
     29 C29         33.0840    75.8620    20.7700 ca         1 0GO      -0.112000
     30 C30         32.2120    74.7960    20.5870 ca         1 0GO      -0.107500
     31 O31         28.8030    71.1950    19.9310 oh         1 0GO      -0.643000
     32 C32         29.7520    67.7560    17.0200 ca         1 0GO      -0.088300
     33 C33         31.0230    67.3400    16.6300 ca         1 0GO      -0.108000
     34 C34         31.6410    66.2760    17.2790 ca         1 0GO      -0.113000
     35 C35         30.9940    65.6250    18.3230 ca         1 0GO      -0.107000
     36 C36         29.7210    66.0260    18.7340 ca         1 0GO      -0.080300
     37 C37         29.1170    67.0930    18.0680 ca         1 0GO      -0.076000
     38 C38         29.0150    65.3100    19.8680 c3         1 0GO      -0.016400
     39 C39         28.7040    66.2570    21.0340 c3         1 0GO      -0.084100
     40 C40         27.7420    64.6050    19.3800 c3         1 0GO      -0.084100
     41 H2          30.7860    77.5940    13.3420 hc         1 0GO       0.062200
     42 H3          32.0730    78.2230    14.3760 hc         1 0GO       0.062200
     43 H4          30.8390    80.2280    14.8350 hc         1 0GO       0.048700
     44 H5          30.1340    79.8760    13.2640 hc         1 0GO       0.048700
     45 H6          28.8240    79.8350    15.8680 h1         1 0GO       0.039700
     46 H7          28.0630    79.4020    14.3380 h1         1 0GO       0.039700
     47 H8          31.5230    78.6350    16.8210 hc         1 0GO       0.061700
     48 H9          30.3780    77.5570    17.6100 hc         1 0GO       0.061700
     49 H10         32.2790    76.1860    17.8980 h1         1 0GO       0.055700
     50 H11         33.0930    76.8590    16.4790 h1         1 0GO       0.055700
     51 H12         31.6720    73.6400    15.1480 h1         1 0GO       0.097700
     52 H13         30.2070    74.2350    17.4590 hn         1 0GO       0.322500
     53 H14         28.3180    78.0730    17.3460 h1         1 0GO       0.029200
     54 H15         27.0630    77.8520    16.1420 h1         1 0GO       0.029200
     55 H16         27.7040    75.4310    15.9390 hc         1 0GO       0.048700
     56 H17         28.8930    75.6680    17.2040 hc         1 0GO       0.048700
     57 H18         26.8310    74.7430    18.1910 hc         1 0GO       0.033033
     58 H19         27.1010    76.3750    18.8030 hc         1 0GO       0.033033
     59 H20         25.8860    76.0930    17.5510 hc         1 0GO       0.033033
     60 H21         34.0830    73.2620    15.3950 hc         1 0GO       0.051033
     61 H22         33.7890    74.8500    14.6670 hc         1 0GO       0.051033
     62 H23         34.2670    74.7200    16.3700 hc         1 0GO       0.051033
     63 H24         31.2490    72.2940    19.4150 h1         1 0GO       0.096700
     64 H25         28.4390    72.3560    18.2510 h1         1 0GO       0.024700
     65 H26         30.3890    70.0360    18.3640 h1         1 0GO       0.055200
     66 H27         30.3550    71.1500    17.0000 h1         1 0GO       0.055200
     67 H28         28.0040    70.5760    16.7580 hn         1 0GO       0.402000
     68 H30         28.1740    68.5340    15.8020 h1         1 0GO       0.036200
     69 H31         29.7430    69.3010    15.5470 h1         1 0GO       0.036200
     70 H32         28.9420    74.2650    19.7610 hc         1 0GO       0.054700
     71 H33         29.7510    73.3480    21.0200 hc         1 0GO       0.054700
     72 H34         29.3830    76.5160    19.9110 ha         1 0GO       0.116500
     73 H35         30.9180    78.4160    20.2550 ha         1 0GO       0.114500
     74 H36         33.3030    78.0030    20.7950 ha         1 0GO       0.114000
     75 H37         34.1250    75.6720    21.0000 ha         1 0GO       0.114500
     76 H38         32.5850    73.7820    20.6760 ha         1 0GO       0.116500
     77 H39         28.1950    71.7950    20.3790 ho         1 0GO       0.435000
     78 H40         31.5310    67.8550    15.8230 ha         1 0GO       0.109000
     79 H41         32.6310    65.9570    16.9740 ha         1 0GO       0.110000
     80 H42         31.4790    64.7980    18.8290 ha         1 0GO       0.107000
     81 H43         28.1330    67.4290    18.3710 ha         1 0GO       0.124000
     82 H44         29.7010    64.5410    20.2360 hc         1 0GO       0.044700
     83 H45         28.2460    65.7070    21.8590 hc         1 0GO       0.035033
     84 H46         29.6120    66.7370    21.4020 hc         1 0GO       0.035033
     85 H47         28.0080    67.0400    20.7250 hc         1 0GO       0.035033
     86 H48         27.2790    64.0440    20.1950 hc         1 0GO       0.035033
     87 H49         27.0130    65.3310    19.0130 hc         1 0GO       0.035033
     88 H50         27.9660    63.9100    18.5690 hc         1 0GO       0.035033
@<TRIPOS>BOND
     1     1     2 1   
     2     1     5 1   
     3     1    15 1   
     4     2     3 1   
     5     2     6 1   
     6     2     9 1   
     7     3     4 1   
     8     3    41 1   
     9     3    42 1   
    10     4     5 1   
    11     4    43 1   
    12     4    44 1   
    13     5    45 1   
    14     5    46 1   
    15     6     7 1   
    16     6    47 1   
    17     6    48 1   
    18     7     8 1   
    19     7    49 1   
    20     7    50 1   
    21     8     9 1   
    22     8    11 1   
    23     9    10 2   
    24    11    12 1   
    25    11    18 1   
    26    11    51 1   
    27    12    13 1   
    28    12    14 2   
    29    13    19 1   
    30    13    52 1   
    31    15    16 1   
    32    15    53 1   
    33    15    54 1   
    34    16    17 1   
    35    16    55 1   
    36    16    56 1   
    37    17    57 1   
    38    17    58 1   
    39    17    59 1   
    40    18    60 1   
    41    18    61 1   
    42    18    62 1   
    43    19    20 1   
    44    19    24 1   
    45    19    63 1   
    46    20    21 1   
    47    20    31 1   
    48    20    64 1   
    49    21    22 1   
    50    21    65 1   
    51    21    66 1   
    52    22    23 1   
    53    22    67 1   
    54    23    32 1   
    55    23    68 1   
    56    23    69 1   
    57    24    25 1   
    58    24    70 1   
    59    24    71 1   
    60    25    26 ar  
    61    25    30 ar  
    62    26    27 ar  
    63    26    72 1   
    64    27    28 ar  
    65    27    73 1   
    66    28    29 ar  
    67    28    74 1   
    68    29    30 ar  
    69    29    75 1   
    70    30    76 1   
    71    31    77 1   
    72    32    33 ar  
    73    32    37 ar  
    74    33    34 ar  
    75    33    78 1   
    76    34    35 ar  
    77    34    79 1   
    78    35    36 ar  
    79    35    80 1   
    80    36    37 ar  
    81    36    38 1   
    82    37    81 1   
    83    38    39 1   
    84    38    40 1   
    85    38    82 1   
    86    39    83 1   
    87    39    84 1   
    88    39    85 1   
    89    40    86 1   
    90    40    87 1   
    91    40    88 1   
@<TRIPOS>SUBSTRUCTURE
     1 0GO         1 TEMP              0 ****  ****    0 ROOT
