@<TRIPOS>MOLECULE
0GO
   88    91     1     0     0
SMALL
No Charge or Current Charge


@<TRIPOS>ATOM
      1 N1          29.0030    77.5040    15.3570 n3         1 0GO      -0.712600
      2 C2          30.4360    77.0230    15.4370 c5         1 0GO       0.114200
      3 C3          31.1380    77.7230    14.2100 c5         1 0GO      -0.068400
      4 C4          30.0320    78.6510    13.6260 c5         1 0GO      -0.083400
      5 C5          29.1040    78.8840    14.8390 c5         1 0GO       0.171800
      6 C6          31.1420    77.5440    16.7390 c5         1 0GO      -0.119400
      7 C7          32.4030    76.6290    16.8220 c5         1 0GO       0.097000
      8 N8          31.9460    75.3760    16.1720 n          1 0GO      -0.430800
      9 C9          30.7670    75.4980    15.4180 c          1 0GO       0.564000
     10 O10         30.1700    74.5650    14.8950 o          1 0GO      -0.534000
     11 C11         32.6130    74.0410    16.3220 c3         1 0GO       0.034700
     12 C12         31.8610    73.0420    17.2470 c          1 0GO       0.587100
     13 N13         30.7950    73.5660    17.9420 ns         1 0GO      -0.496900
     14 O14         32.1970    71.8710    17.3650 o          1 0GO      -0.607100
     15 C15         28.0840    77.3310    16.5110 c3         1 0GO       0.180800
     16 C16         27.8770    75.8780    16.9880 c3         1 0GO      -0.084400
     17 C17         26.7920    75.7620    18.0770 c3         1 0GO      -0.091100
     18 C18         34.0850    74.1690    16.7840 c3         1 0GO      -0.092100
     19 C19         30.0480    72.8850    19.0090 c3         1 0GO       0.080700
     20 C20         28.7750    72.1620    18.4700 c3         1 0GO       0.163300
     21 C21         29.0540    71.1130    17.3610 c3         1 0GO       0.156800
     22 N22         27.8630    70.2350    17.1690 n7         1 0GO      -0.853400
     23 C23         28.0620    69.0870    16.2620 c3         1 0GO       0.208100
     24 C24         29.7300    73.8980    20.1440 c3         1 0GO      -0.050100
     25 C25         30.8580    74.8960    20.4120 ca         1 0GO      -0.077300
     26 C26         30.6200    76.2800    20.3010 ca         1 0GO      -0.107500
     27 C27         31.6620    77.1990    20.5100 ca         1 0GO      -0.112000
     28 C28         32.9500    76.7410    20.8320 ca         1 0GO      -0.115000
     29 C29         33.1940    75.3620    20.9500 ca         1 0GO      -0.112000
     30 C30         32.1510    74.4430    20.7440 ca         1 0GO      -0.107500
     31 O31         28.0870    71.4740    19.5200 oh         1 0GO      -0.643000
     32 C32         29.1190    68.1250    16.7950 ca         1 0GO      -0.088300
     33 C33         30.3400    67.9570    16.1150 ca         1 0GO      -0.108000
     34 C34         31.3110    67.0750    16.6160 ca         1 0GO      -0.113000
     35 C35         31.0700    66.3590    17.8000 ca         1 0GO      -0.107000
     36 C36         29.8540    66.5170    18.4940 ca         1 0GO      -0.080300
     37 C37         28.8830    67.4030    17.9810 ca         1 0GO      -0.076000
     38 C38         29.6010    65.7390    19.7870 c3         1 0GO      -0.016400
     39 C39         29.4360    66.6890    20.9940 c3         1 0GO      -0.084100
     40 C40         28.3970    64.7810    19.6470 c3         1 0GO      -0.084100
     41 H2          31.4690    76.9990    13.4560 hc         1 0GO       0.062200
     42 H3          32.0280    78.2970    14.4920 hc         1 0GO       0.062200
     43 H4          30.4360    79.5870    13.2240 hc         1 0GO       0.048700
     44 H5          29.4890    78.1550    12.8130 hc         1 0GO       0.048700
     45 H6          29.5490    79.5710    15.5730 h1         1 0GO       0.039700
     46 H7          28.1290    79.2890    14.5360 h1         1 0GO       0.039700
     47 H8          31.3930    78.6110    16.7260 hc         1 0GO       0.061700
     48 H9          30.5310    77.3750    17.6290 hc         1 0GO       0.061700
     49 H10         32.7170    76.4690    17.8620 h1         1 0GO       0.055700
     50 H11         33.2480    77.0600    16.2690 h1         1 0GO       0.055700
     51 H12         32.6200    73.5680    15.3320 h1         1 0GO       0.097700
     52 H13         30.6330    74.5550    17.8050 hn         1 0GO       0.322500
     53 H14         28.4170    77.9400    17.3620 h1         1 0GO       0.029200
     54 H15         27.0980    77.7220    16.2240 h1         1 0GO       0.029200
     55 H16         27.5970    75.2520    16.1330 hc         1 0GO       0.048700
     56 H17         28.8170    75.4860    17.3880 hc         1 0GO       0.048700
     57 H18         26.6600    74.7170    18.3810 hc         1 0GO       0.033033
     58 H19         27.0700    76.3450    18.9630 hc         1 0GO       0.033033
     59 H20         25.8300    76.1330    17.7060 hc         1 0GO       0.033033
     60 H21         34.5830    73.1920    16.7620 hc         1 0GO       0.051033
     61 H22         34.6420    74.8430    16.1230 hc         1 0GO       0.051033
     62 H23         34.1450    74.5550    17.8090 hc         1 0GO       0.051033
     63 H24         30.7070    72.1170    19.4370 h1         1 0GO       0.096700
     64 H25         28.1070    72.9200    18.0410 h1         1 0GO       0.024700
     65 H26         29.9220    70.5140    17.6690 h1         1 0GO       0.055200
     66 H27         29.3220    71.6280    16.4270 h1         1 0GO       0.055200
     67 H28         27.1050    70.8090    16.7770 hn         1 0GO       0.402000
     68 H30         27.1180    68.5360    16.1470 h1         1 0GO       0.036200
     69 H31         28.3540    69.4380    15.2630 h1         1 0GO       0.036200
     70 H32         28.8140    74.4410    19.8810 hc         1 0GO       0.054700
     71 H33         29.4970    73.3460    21.0620 hc         1 0GO       0.054700
     72 H34         29.6280    76.6480    20.0450 ha         1 0GO       0.116500
     73 H35         31.4720    78.2660    20.4180 ha         1 0GO       0.114500
     74 H36         33.7580    77.4520    20.9910 ha         1 0GO       0.114000
     75 H37         34.1900    75.0060    21.2000 ha         1 0GO       0.114500
     76 H38         32.3510    73.3780    20.8330 ha         1 0GO       0.116500
     77 H39         27.7280    70.6850    19.0430 ho         1 0GO       0.435000
     78 H40         30.5380    68.5110    15.2000 ha         1 0GO       0.109000
     79 H41         32.2540    66.9490    16.0880 ha         1 0GO       0.110000
     80 H42         31.8330    65.6810    18.1770 ha         1 0GO       0.107000
     81 H43         27.9410    67.5410    18.5070 ha         1 0GO       0.124000
     82 H44         30.4760    65.1130    20.0000 hc         1 0GO       0.044700
     83 H45         29.3370    66.1180    21.9250 hc         1 0GO       0.035033
     84 H46         30.3100    67.3440    21.0890 hc         1 0GO       0.035033
     85 H47         28.5450    67.3200    20.8840 hc         1 0GO       0.035033
     86 H48         28.2800    64.1720    20.5510 hc         1 0GO       0.035033
     87 H49         27.4650    65.3350    19.4850 hc         1 0GO       0.035033
     88 H50         28.5450    64.1020    18.7980 hc         1 0GO       0.035033
@<TRIPOS>BOND
     1     1     2 1   
     2     1     5 1   
     3     1    15 1   
     4     2     3 1   
     5     2     6 1   
     6     2     9 1   
     7     3     4 1   
     8     3    41 1   
     9     3    42 1   
    10     4     5 1   
    11     4    43 1   
    12     4    44 1   
    13     5    45 1   
    14     5    46 1   
    15     6     7 1   
    16     6    47 1   
    17     6    48 1   
    18     7     8 1   
    19     7    49 1   
    20     7    50 1   
    21     8     9 1   
    22     8    11 1   
    23     9    10 2   
    24    11    12 1   
    25    11    18 1   
    26    11    51 1   
    27    12    13 1   
    28    12    14 2   
    29    13    19 1   
    30    13    52 1   
    31    15    16 1   
    32    15    53 1   
    33    15    54 1   
    34    16    17 1   
    35    16    55 1   
    36    16    56 1   
    37    17    57 1   
    38    17    58 1   
    39    17    59 1   
    40    18    60 1   
    41    18    61 1   
    42    18    62 1   
    43    19    20 1   
    44    19    24 1   
    45    19    63 1   
    46    20    21 1   
    47    20    31 1   
    48    20    64 1   
    49    21    22 1   
    50    21    65 1   
    51    21    66 1   
    52    22    23 1   
    53    22    67 1   
    54    23    32 1   
    55    23    68 1   
    56    23    69 1   
    57    24    25 1   
    58    24    70 1   
    59    24    71 1   
    60    25    26 ar  
    61    25    30 ar  
    62    26    27 ar  
    63    26    72 1   
    64    27    28 ar  
    65    27    73 1   
    66    28    29 ar  
    67    28    74 1   
    68    29    30 ar  
    69    29    75 1   
    70    30    76 1   
    71    31    77 1   
    72    32    33 ar  
    73    32    37 ar  
    74    33    34 ar  
    75    33    78 1   
    76    34    35 ar  
    77    34    79 1   
    78    35    36 ar  
    79    35    80 1   
    80    36    37 ar  
    81    36    38 1   
    82    37    81 1   
    83    38    39 1   
    84    38    40 1   
    85    38    82 1   
    86    39    83 1   
    87    39    84 1   
    88    39    85 1   
    89    40    86 1   
    90    40    87 1   
    91    40    88 1   
@<TRIPOS>SUBSTRUCTURE
     1 0GO         1 TEMP              0 ****  ****    0 ROOT
