@<TRIPOS>MOLECULE
0GQ
  121   124     1     0     0
SMALL
No Charge or Current Charge


@<TRIPOS>ATOM
      1 NB          12.5330    -1.5060     3.3080 n8         1 0GQ      -0.995200
      2 CM1         11.3570    -1.8020     2.4720 c6         1 0GQ       0.166500
      3 CM2         11.5070    -1.1640     1.0830 c6         1 0GQ      -0.098400
      4 CM5         10.0780    -1.2610     3.1260 c6         1 0GQ      -0.098400
      5 CM3         10.2890    -1.4840     0.1880 c6         1 0GQ       0.110500
      6 NM           8.9500    -1.2500     0.8100 n          1 0GQ      -0.430800
      7 CM4          8.8280    -1.5710     2.2700 c6         1 0GQ       0.110500
      8 C            7.8170    -1.2150    -0.0290 c          1 0GQ       0.679100
      9 O            7.9100    -1.1680    -1.2460 o          1 0GQ      -0.654100
     10 N            6.5970    -1.2280     0.6010 ns         1 0GQ      -0.517900
     11 CA           5.2870    -1.3640    -0.0780 c3         1 0GQ       0.050700
     12 C1           4.2260    -0.4360     0.5820 c          1 0GQ       0.584100
     13 O1           4.3930     0.1070     1.6680 o          1 0GQ      -0.601100
     14 CB           4.8180    -2.8450    -0.0760 c3         1 0GQ      -0.046100
     15 CG           5.8620    -3.8130    -0.6230 ca         1 0GQ      -0.079300
     16 CD1          6.7180    -4.5100     0.2540 ca         1 0GQ      -0.100500
     17 CD2          5.9900    -4.0080    -2.0120 ca         1 0GQ      -0.100500
     18 CE1          7.6920    -5.3870    -0.2520 ca         1 0GQ      -0.107000
     19 CE2          6.9630    -4.8880    -2.5180 ca         1 0GQ      -0.107000
     20 CZ           7.8150    -5.5770    -1.6380 ca         1 0GQ      -0.106000
     21 N1           3.0650    -0.2620    -0.1450 ns         1 0GQ      -0.507900
     22 CB1          1.9410     0.5830     0.2660 c3         1 0GQ       0.115000
     23 CA1          2.2100     2.0700    -0.0270 c3         1 0GQ      -0.182400
     24 C2           1.0080     2.9180     0.3790 c          1 0GQ       0.601100
     25 O2           0.7350     3.1490     1.5470 o          1 0GQ      -0.589100
     26 N2           0.2740     3.4270    -0.6710 ns         1 0GQ      -0.519900
     27 CA2         -0.9020     4.3070    -0.5330 c3         1 0GQ       0.080700
     28 CB2         -0.8100     5.4420    -1.5910 c3         1 0GQ      -0.078400
     29 CG1         -1.9250     6.5380    -1.5600 c6         1 0GQ      -0.060700
     30 CD11        -1.6960     7.5790    -2.6920 c6         1 0GQ      -0.072400
     31 CD21        -2.0250     7.2570    -0.1810 c6         1 0GQ      -0.072400
     32 CE11        -2.7940     8.6710    -2.6970 c6         1 0GQ      -0.072900
     33 CE21        -3.1190     8.3530    -0.1880 c6         1 0GQ      -0.072900
     34 CZ1         -2.8840     9.3780    -1.3230 c6         1 0GQ      -0.074400
     35 CH          -2.2470     3.5080    -0.5650 c3         1 0GQ       0.160300
     36 OH          -2.3810     2.8110    -1.8110 oh         1 0GQ      -0.652000
     37 CM          -2.3840     2.4840     0.5810 c3         1 0GQ      -0.193400
     38 C3          -3.8180     1.9760     0.6870 c          1 0GQ       0.615100
     39 O3          -4.7220     2.6660     1.1350 o          1 0GQ      -0.606100
     40 N3          -4.0070     0.6700     0.2960 ns         1 0GQ      -0.486900
     41 CA3         -5.3070    -0.0420     0.2800 c3         1 0GQ       0.030700
     42 C4          -5.1340    -1.5070     0.7930 c          1 0GQ       0.587100
     43 O4          -4.0480    -1.9910     1.0910 o          1 0GQ      -0.605100
     44 CB3         -6.0260     0.0680    -1.1100 c3         1 0GQ      -0.065700
     45 CG11        -5.1360    -0.2700    -2.3440 c3         1 0GQ      -0.072400
     46 CG2         -6.6770     1.4610    -1.2940 c3         1 0GQ      -0.095100
     47 CD12        -4.5630    -1.7020    -2.3790 c3         1 0GQ      -0.098100
     48 N4          -6.2960    -2.2370     0.9060 ns         1 0GQ      -0.507900
     49 CA4         -6.3580    -3.6200     1.3540 c3         1 0GQ       0.167300
     50 CP          -7.8010    -4.0850     1.4470 ca         1 0GQ      -0.306300
     51 CQ1         -8.4430    -4.1450     2.6970 ca         1 0GQ       0.152900
     52 CQ2         -8.5600    -4.4780     0.3340 ca         1 0GQ       0.402900
     53 NR1         -9.7200    -4.5560     2.8190 nb         1 0GQ      -0.219000
     54 NQ2         -8.0700    -4.4640    -0.9310 nv         1 0GQ      -1.068900
     55 NR2         -9.8300    -4.8890     0.4390 nb         1 0GQ      -0.278000
     56 CS         -10.3550    -4.9080     1.6820 ca         1 0GQ       0.189300
     57 CS1        -11.7920    -5.3800     1.8130 c3         1 0GQ      -0.137400
     58 HNB1        12.4360    -2.0070     4.1990 hn         1 0GQ       0.394500
     59 HNB2        13.3580    -1.9420     2.8800 hn         1 0GQ       0.394500
     60 HM1         11.2890    -2.8950     2.3720 h1         1 0GQ       0.010700
     61 HM21        11.6060    -0.0740     1.1800 hc         1 0GQ       0.057450
     62 HM22        12.4220    -1.5210     0.5930 hc         1 0GQ       0.057450
     63 HM51         9.9480    -1.6910     4.1280 hc         1 0GQ       0.057450
     64 HM52        10.1600    -0.1730     3.2600 hc         1 0GQ       0.057450
     65 HM31        10.3760    -0.8890    -0.7330 h1         1 0GQ       0.050200
     66 HM32        10.3420    -2.5410    -0.1110 h1         1 0GQ       0.050200
     67 HM41         8.5960    -2.6420     2.3630 h1         1 0GQ       0.050200
     68 HM42         7.9870    -1.0170     2.7080 h1         1 0GQ       0.050200
     69 H            6.6070    -1.1980     1.6110 hn         1 0GQ       0.328500
     70 HA           5.3900    -1.0310    -1.1190 h1         1 0GQ       0.092700
     71 HB2          4.5520    -3.1280     0.9500 hc         1 0GQ       0.057700
     72 HB3          3.8930    -2.9320    -0.6590 hc         1 0GQ       0.057700
     73 HD1          6.6330    -4.3650     1.3290 ha         1 0GQ       0.106500
     74 HD2          5.3400    -3.4740    -2.7010 ha         1 0GQ       0.106500
     75 HE1          8.3520    -5.9180     0.4310 ha         1 0GQ       0.111500
     76 HE2          7.0580    -5.0340    -3.5920 ha         1 0GQ       0.111500
     77 HZ           8.5690    -6.2560    -2.0300 ha         1 0GQ       0.112000
     78 H1           3.0030    -0.7460    -1.0340 hn         1 0GQ       0.314500
     79 HB31         1.0410     0.2580    -0.2740 h1         1 0GQ       0.071700
     80 HB21         1.7560     0.4420     1.3410 h1         1 0GQ       0.071700
     81 HA1          3.0800     2.3910     0.5560 hc         1 0GQ       0.060200
     82 HA2          2.4140     2.1850    -1.0980 hc         1 0GQ       0.060200
     83 H2           0.6240     3.2300    -1.6010 hn         1 0GQ       0.307500
     84 HA3         -0.8380     4.7870     0.4530 h1         1 0GQ       0.091700
     85 HB22         0.1660     5.9300    -1.4720 hc         1 0GQ       0.044700
     86 HB32        -0.7900     4.9830    -2.5870 hc         1 0GQ       0.044700
     87 HG          -2.8790     6.0320    -1.7630 hc         1 0GQ       0.059700
     88 HD12        -0.7110     8.0520    -2.5710 hc         1 0GQ       0.038200
     89 HD13        -1.6810     7.0750    -3.6680 hc         1 0GQ       0.038200
     90 HD23        -2.2580     6.5350     0.6130 hc         1 0GQ       0.038200
     91 HD22        -1.0560     7.7050     0.0780 hc         1 0GQ       0.038200
     92 HE12        -2.5820     9.4100    -3.4820 hc         1 0GQ       0.040700
     93 HE13        -3.7640     8.2200    -2.9470 hc         1 0GQ       0.040700
     94 HE23        -4.1080     7.8880    -0.3080 hc         1 0GQ       0.040700
     95 HE22        -3.1340     8.8700     0.7820 hc         1 0GQ       0.040700
     96 HZ2         -1.9580     9.9370    -1.1320 hc         1 0GQ       0.038200
     97 HZ3         -3.6990    10.1150    -1.3350 hc         1 0GQ       0.038200
     98 HH          -3.0670     4.2320    -0.4490 h1         1 0GQ       0.102700
     99 HO          -1.5170     2.3860    -1.9910 ho         1 0GQ       0.432000
    100 HM11        -1.6920     1.6510     0.4130 hc         1 0GQ       0.075700
    101 HM2         -2.1360     2.9870     1.5230 hc         1 0GQ       0.075700
    102 H3          -3.1860     0.1690    -0.0200 hn         1 0GQ       0.322500
    103 HA4         -5.9600     0.4240     1.0290 h1         1 0GQ       0.094700
    104 HB          -6.8610    -0.6430    -1.1150 hc         1 0GQ       0.050700
    105 HG12        -5.7380    -0.1340    -3.2510 hc         1 0GQ       0.039200
    106 HG13        -4.3100     0.4470    -2.4180 hc         1 0GQ       0.039200
    107 HG21        -5.9160     2.2440    -1.3820 hc         1 0GQ       0.044367
    108 HG22        -7.2920     1.4840    -2.2010 hc         1 0GQ       0.044367
    109 HG23        -7.3270     1.7050    -0.4440 hc         1 0GQ       0.044367
    110 HD11        -3.7860    -1.8360    -1.6190 hc         1 0GQ       0.035367
    111 HD14        -5.3530    -2.4450    -2.2130 hc         1 0GQ       0.035367
    112 HD15        -4.1080    -1.9020    -3.3560 hc         1 0GQ       0.035367
    113 HN2         -7.1620    -1.7790     0.6480 hn         1 0GQ       0.320500
    114 HCA1        -5.7940    -4.2540     0.6560 h1         1 0GQ       0.056700
    115 HCA2        -5.8770    -3.6950     2.3390 h1         1 0GQ       0.056700
    116 HQ1         -7.9320    -3.8600     3.6150 h4         1 0GQ       0.021100
    117 HQ21        -7.0730    -4.3460    -1.0770 hn         1 0GQ       0.495500
    118 HQ22        -8.5970    -4.9300    -1.6650 hn         1 0GQ       0.495500
    119 HS11       -12.3830    -5.1150     0.9280 hc         1 0GQ       0.060367
    120 HS12       -11.8330    -6.4690     1.9290 hc         1 0GQ       0.060367
    121 HS13       -12.2850    -4.9310     2.6830 hc         1 0GQ       0.060367
@<TRIPOS>BOND
     1     1     2 1   
     2     1    58 1   
     3     1    59 1   
     4     2     3 1   
     5     2     4 1   
     6     2    60 1   
     7     3     5 1   
     8     3    61 1   
     9     3    62 1   
    10     4     7 1   
    11     4    63 1   
    12     4    64 1   
    13     5     6 1   
    14     5    65 1   
    15     5    66 1   
    16     6     7 1   
    17     6     8 1   
    18     7    67 1   
    19     7    68 1   
    20     8     9 2   
    21     8    10 1   
    22    10    11 1   
    23    10    69 1   
    24    11    12 1   
    25    11    14 1   
    26    11    70 1   
    27    12    13 2   
    28    12    21 1   
    29    14    15 1   
    30    14    71 1   
    31    14    72 1   
    32    15    16 ar  
    33    15    17 ar  
    34    16    18 ar  
    35    16    73 1   
    36    17    19 ar  
    37    17    74 1   
    38    18    20 ar  
    39    18    75 1   
    40    19    20 ar  
    41    19    76 1   
    42    20    77 1   
    43    21    22 1   
    44    21    78 1   
    45    22    23 1   
    46    22    79 1   
    47    22    80 1   
    48    23    24 1   
    49    23    81 1   
    50    23    82 1   
    51    24    25 2   
    52    24    26 1   
    53    26    27 1   
    54    26    83 1   
    55    27    28 1   
    56    27    35 1   
    57    27    84 1   
    58    28    29 1   
    59    28    85 1   
    60    28    86 1   
    61    29    30 1   
    62    29    31 1   
    63    29    87 1   
    64    30    32 1   
    65    30    88 1   
    66    30    89 1   
    67    31    33 1   
    68    31    90 1   
    69    31    91 1   
    70    32    34 1   
    71    32    92 1   
    72    32    93 1   
    73    33    34 1   
    74    33    94 1   
    75    33    95 1   
    76    34    96 1   
    77    34    97 1   
    78    35    36 1   
    79    35    37 1   
    80    35    98 1   
    81    36    99 1   
    82    37    38 1   
    83    37   100 1   
    84    37   101 1   
    85    38    39 2   
    86    38    40 1   
    87    40    41 1   
    88    40   102 1   
    89    41    42 1   
    90    41    44 1   
    91    41   103 1   
    92    42    43 2   
    93    42    48 1   
    94    44    45 1   
    95    44    46 1   
    96    44   104 1   
    97    45    47 1   
    98    45   105 1   
    99    45   106 1   
   100    46   107 1   
   101    46   108 1   
   102    46   109 1   
   103    47   110 1   
   104    47   111 1   
   105    47   112 1   
   106    48    49 1   
   107    48   113 1   
   108    49    50 1   
   109    49   114 1   
   110    49   115 1   
   111    50    51 ar  
   112    50    52 ar  
   113    51    53 ar  
   114    51   116 1   
   115    52    54 1   
   116    52    55 ar  
   117    53    56 ar  
   118    54   117 1   
   119    54   118 1   
   120    55    56 ar  
   121    56    57 1   
   122    57   119 1   
   123    57   120 1   
   124    57   121 1   
@<TRIPOS>SUBSTRUCTURE
     1 0GQ         1 TEMP              0 ****  ****    0 ROOT
