@<TRIPOS>MOLECULE
0GQ
  121   124     1     0     0
SMALL
abcg2


@<TRIPOS>ATOM
      1 NB          11.0540    -1.5010     4.3740 n8         1 0GQ      -0.995200
      2 CM1         10.5660    -2.0640     3.1260 c6         1 0GQ       0.166500
      3 CM2         10.6750    -1.0360     2.0050 c6         1 0GQ      -0.098400
      4 CM5          9.1120    -2.4970     3.2770 c6         1 0GQ      -0.098400
      5 CM3         10.0770    -1.5670     0.7070 c6         1 0GQ       0.110500
      6 NM           8.7020    -1.9790     0.9170 n          1 0GQ      -0.430800
      7 CM4          8.5630    -2.9920     1.9460 c6         1 0GQ       0.110500
      8 C            7.7040    -1.4510     0.1560 c          1 0GQ       0.679100
      9 O            7.9340    -0.7730    -0.8430 o          1 0GQ      -0.654100
     10 N            6.4280    -1.6960     0.5670 ns         1 0GQ      -0.517900
     11 CA           5.2820    -1.4100    -0.2470 c3         1 0GQ       0.050700
     12 C1           4.2990    -0.5500     0.5410 c          1 0GQ       0.584100
     13 O1           4.0980    -0.7470     1.7320 o          1 0GQ      -0.601100
     14 CB           4.5750    -2.7070    -0.6920 c3         1 0GQ      -0.046100
     15 CG           5.5080    -3.5980    -1.4580 ca         1 0GQ      -0.079300
     16 CD1          6.2340    -4.5940    -0.8110 ca         1 0GQ      -0.100500
     17 CD2          5.7080    -3.4100    -2.8240 ca         1 0GQ      -0.100500
     18 CE1          7.1400    -5.3830    -1.5080 ca         1 0GQ      -0.107000
     19 CE2          6.6100    -4.1970    -3.5260 ca         1 0GQ      -0.107000
     20 CZ           7.3310    -5.1860    -2.8690 ca         1 0GQ      -0.106000
     21 N1           3.6540     0.3830    -0.1670 ns         1 0GQ      -0.507900
     22 CB1          2.6730     1.2690     0.4270 c3         1 0GQ       0.115000
     23 CA1          1.9710     2.0630    -0.6600 c3         1 0GQ      -0.182400
     24 C2           0.9330     3.0090    -0.0910 c          1 0GQ       0.601100
     25 O2           0.9270     3.3360     1.0860 o          1 0GQ      -0.589100
     26 N2           0.0350     3.4580    -0.9880 ns         1 0GQ      -0.519900
     27 CA2         -0.9940     4.4400    -0.6960 c3         1 0GQ       0.080700
     28 CB2         -0.9800     5.5130    -1.7870 c3         1 0GQ      -0.078400
     29 CG1         -2.0300     6.6130    -1.6490 c6         1 0GQ      -0.060700
     30 CD11        -1.9250     7.5980    -2.8150 c6         1 0GQ      -0.072400
     31 CD21        -1.9250     7.3670    -0.3230 c6         1 0GQ      -0.072400
     32 CE11        -2.9740     8.7000    -2.7250 c6         1 0GQ      -0.072900
     33 CE21        -2.9700     8.4730    -0.2200 c6         1 0GQ      -0.072900
     34 CZ1         -2.8840     9.4420    -1.3950 c6         1 0GQ      -0.074400
     35 CH          -2.3680     3.7750    -0.5310 c3         1 0GQ       0.160300
     36 OH          -2.8310     3.2130    -1.7400 oh         1 0GQ      -0.652000
     37 CM          -2.3890     2.7450     0.5970 c3         1 0GQ      -0.193400
     38 C3          -3.7840     2.1750     0.7300 c          1 0GQ       0.615100
     39 O3          -4.7320     2.8730     1.0600 o          1 0GQ      -0.606100
     40 N3          -3.8920     0.8690     0.4300 ns         1 0GQ      -0.486900
     41 CA3         -5.1290     0.1380     0.4100 c3         1 0GQ       0.030700
     42 C4          -5.0100    -1.0990     1.3060 c          1 0GQ       0.587100
     43 O4          -3.9690    -1.4130     1.8600 o          1 0GQ      -0.605100
     44 CB3         -5.6150    -0.1390    -1.0340 c3         1 0GQ      -0.065700
     45 CG11        -4.5480    -0.7400    -1.9510 c3         1 0GQ      -0.072400
     46 CG2         -6.1540     1.1510    -1.6470 c3         1 0GQ      -0.095100
     47 CD12        -4.0250    -2.1180    -1.5660 c3         1 0GQ      -0.098100
     48 N4          -6.1520    -1.7890     1.4540 ns         1 0GQ      -0.507900
     49 CA4         -6.2850    -2.9100     2.3670 c3         1 0GQ       0.167300
     50 CP          -7.5040    -3.7100     2.0340 ca         1 0GQ      -0.306300
     51 CQ1         -8.6230    -3.6910     2.8280 ca         1 0GQ       0.152900
     52 CQ2         -7.5980    -4.5210     0.8790 ca         1 0GQ       0.402900
     53 NR1         -9.7420    -4.3710     2.5670 nb         1 0GQ      -0.219000
     54 NQ2         -6.5870    -4.6230    -0.0000 nv         1 0GQ      -1.068900
     55 NR2         -8.7120    -5.2010     0.6130 nb         1 0GQ      -0.278000
     56 CS          -9.7300    -5.0970     1.4580 ca         1 0GQ       0.189300
     57 CS1        -10.9640    -5.8700     1.1150 c3         1 0GQ      -0.137400
     58 HNB1        11.0180    -2.2080     5.0990 hn         1 0GQ       0.394500
     59 HNB2        12.0340    -1.2620     4.2770 hn         1 0GQ       0.394500
     60 HM1         11.1380    -2.9530     2.8110 h1         1 0GQ       0.010700
     61 HM21        10.1520    -0.1220     2.3010 hc         1 0GQ       0.057450
     62 HM22        11.7220    -0.7730     1.8330 hc         1 0GQ       0.057450
     63 HM51         9.0290    -3.2970     4.0180 hc         1 0GQ       0.057450
     64 HM52         8.5130    -1.6540     3.6350 hc         1 0GQ       0.057450
     65 HM31        10.1150    -0.8100    -0.0700 h1         1 0GQ       0.050200
     66 HM32        10.6620    -2.4240     0.3520 h1         1 0GQ       0.050200
     67 HM41         9.1230    -3.8800     1.6300 h1         1 0GQ       0.050200
     68 HM42         7.5320    -3.3200     2.0530 h1         1 0GQ       0.050200
     69 H            6.2400    -2.1020     1.4670 hn         1 0GQ       0.328500
     70 HA           5.6250    -0.8730    -1.1310 h1         1 0GQ       0.092700
     71 HB2          4.1990    -3.2260     0.1930 hc         1 0GQ       0.057700
     72 HB3          3.7060    -2.4450    -1.3010 hc         1 0GQ       0.057700
     73 HD1          6.0850    -4.7610     0.2490 ha         1 0GQ       0.106500
     74 HD2          5.1510    -2.6390    -3.3450 ha         1 0GQ       0.106500
     75 HE1          7.6920    -6.1550    -0.9870 ha         1 0GQ       0.111500
     76 HE2          6.7500    -4.0390    -4.5880 ha         1 0GQ       0.111500
     77 HZ           8.0350    -5.8000    -3.4160 ha         1 0GQ       0.112000
     78 H1           3.9250     0.5400    -1.1250 hn         1 0GQ       0.314500
     79 HB31         1.9490     0.6780     0.9900 h1         1 0GQ       0.071700
     80 HB21         3.1580     1.9450     1.1340 h1         1 0GQ       0.071700
     81 HA1          2.6980     2.6570    -1.2240 hc         1 0GQ       0.060200
     82 HA2          1.5010     1.3870    -1.3800 hc         1 0GQ       0.060200
     83 H2           0.1510     3.1790    -1.9500 hn         1 0GQ       0.307500
     84 HA3         -0.7350     4.8950     0.2620 h1         1 0GQ       0.091700
     85 HB22         0.0150     5.9720    -1.7900 hc         1 0GQ       0.044700
     86 HB32        -1.0970     5.0340    -2.7650 hc         1 0GQ       0.044700
     87 HG          -3.0290     6.1600    -1.7020 hc         1 0GQ       0.059700
     88 HD12        -0.9240     8.0470    -2.8120 hc         1 0GQ       0.038200
     89 HD13        -2.0190     7.0600    -3.7630 hc         1 0GQ       0.038200
     90 HD23        -2.0370     6.6810     0.5230 hc         1 0GQ       0.038200
     91 HD22        -0.9180     7.7960    -0.2380 hc         1 0GQ       0.038200
     92 HE12        -2.8570     9.3990    -3.5570 hc         1 0GQ       0.040700
     93 HE13        -3.9720     8.2610    -2.8280 hc         1 0GQ       0.040700
     94 HE23        -3.9660     8.0170    -0.2030 hc         1 0GQ       0.040700
     95 HE22        -2.8600     9.0090     0.7260 hc         1 0GQ       0.040700
     96 HZ2         -1.9370     9.9910    -1.3490 hc         1 0GQ       0.038200
     97 HZ3         -3.6780    10.1900    -1.3240 hc         1 0GQ       0.038200
     98 HH          -3.0840     4.5610    -0.2780 h1         1 0GQ       0.102700
     99 HO          -2.2850     2.4500    -1.9590 ho         1 0GQ       0.432000
    100 HM11        -1.6530     1.9600     0.4120 hc         1 0GQ       0.075700
    101 HM2         -2.1160     3.2260     1.5380 hc         1 0GQ       0.075700
    102 H3          -3.0480     0.3640     0.2140 hn         1 0GQ       0.322500
    103 HA4         -5.8800     0.7750     0.8880 h1         1 0GQ       0.094700
    104 HB          -6.4470    -0.8490    -0.9790 hc         1 0GQ       0.050700
    105 HG12        -4.9850    -0.8020    -2.9510 hc         1 0GQ       0.039200
    106 HG13        -3.7140    -0.0360    -2.0430 hc         1 0GQ       0.039200
    107 HG21        -5.3710     1.9040    -1.7470 hc         1 0GQ       0.044367
    108 HG22        -6.5560     0.9600    -2.6430 hc         1 0GQ       0.044367
    109 HG23        -6.9550     1.5770    -1.0420 hc         1 0GQ       0.044367
    110 HD11        -3.4400    -2.1100    -0.6470 hc         1 0GQ       0.035367
    111 HD14        -4.8440    -2.8270    -1.4400 hc         1 0GQ       0.035367
    112 HD15        -3.3760    -2.5090    -2.3490 hc         1 0GQ       0.035367
    113 HN2         -7.0060    -1.4030     1.0830 hn         1 0GQ       0.320500
    114 HCA1        -5.3820    -3.5230     2.3080 h1         1 0GQ       0.056700
    115 HCA2        -6.3530    -2.5610     3.4020 h1         1 0GQ       0.056700
    116 HQ1         -8.6230    -3.0910     3.7340 h4         1 0GQ       0.021100
    117 HQ21        -5.6680    -4.2890     0.2270 hn         1 0GQ       0.495500
    118 HQ22        -6.6440    -5.3260    -0.7180 hn         1 0GQ       0.495500
    119 HS11       -11.3940    -5.5050     0.1800 hc         1 0GQ       0.060367
    120 HS12       -10.7300    -6.9240     0.9680 hc         1 0GQ       0.060367
    121 HS13       -11.7130    -5.7800     1.8970 hc         1 0GQ       0.060367
@<TRIPOS>BOND
     1     1     2 1   
     2     1    58 1   
     3     1    59 1   
     4     2     3 1   
     5     2     4 1   
     6     2    60 1   
     7     3     5 1   
     8     3    61 1   
     9     3    62 1   
    10     4     7 1   
    11     4    63 1   
    12     4    64 1   
    13     5     6 1   
    14     5    65 1   
    15     5    66 1   
    16     6     7 1   
    17     6     8 1   
    18     7    67 1   
    19     7    68 1   
    20     8     9 2   
    21     8    10 1   
    22    10    11 1   
    23    10    69 1   
    24    11    12 1   
    25    11    14 1   
    26    11    70 1   
    27    12    13 2   
    28    12    21 1   
    29    14    15 1   
    30    14    71 1   
    31    14    72 1   
    32    15    16 ar  
    33    15    17 ar  
    34    16    18 ar  
    35    16    73 1   
    36    17    19 ar  
    37    17    74 1   
    38    18    20 ar  
    39    18    75 1   
    40    19    20 ar  
    41    19    76 1   
    42    20    77 1   
    43    21    22 1   
    44    21    78 1   
    45    22    23 1   
    46    22    79 1   
    47    22    80 1   
    48    23    24 1   
    49    23    81 1   
    50    23    82 1   
    51    24    25 2   
    52    24    26 1   
    53    26    27 1   
    54    26    83 1   
    55    27    28 1   
    56    27    35 1   
    57    27    84 1   
    58    28    29 1   
    59    28    85 1   
    60    28    86 1   
    61    29    30 1   
    62    29    31 1   
    63    29    87 1   
    64    30    32 1   
    65    30    88 1   
    66    30    89 1   
    67    31    33 1   
    68    31    90 1   
    69    31    91 1   
    70    32    34 1   
    71    32    92 1   
    72    32    93 1   
    73    33    34 1   
    74    33    94 1   
    75    33    95 1   
    76    34    96 1   
    77    34    97 1   
    78    35    36 1   
    79    35    37 1   
    80    35    98 1   
    81    36    99 1   
    82    37    38 1   
    83    37   100 1   
    84    37   101 1   
    85    38    39 2   
    86    38    40 1   
    87    40    41 1   
    88    40   102 1   
    89    41    42 1   
    90    41    44 1   
    91    41   103 1   
    92    42    43 2   
    93    42    48 1   
    94    44    45 1   
    95    44    46 1   
    96    44   104 1   
    97    45    47 1   
    98    45   105 1   
    99    45   106 1   
   100    46   107 1   
   101    46   108 1   
   102    46   109 1   
   103    47   110 1   
   104    47   111 1   
   105    47   112 1   
   106    48    49 1   
   107    48   113 1   
   108    49    50 1   
   109    49   114 1   
   110    49   115 1   
   111    50    51 ar  
   112    50    52 ar  
   113    51    53 ar  
   114    51   116 1   
   115    52    54 1   
   116    52    55 ar  
   117    53    56 ar  
   118    54   117 1   
   119    54   118 1   
   120    55    56 ar  
   121    56    57 1   
   122    57   119 1   
   123    57   120 1   
   124    57   121 1   
@<TRIPOS>SUBSTRUCTURE
     1 0GQ         1 TEMP              0 ****  ****    0 ROOT
