@<TRIPOS>MOLECULE
0GR
   54    56     1     0     0
SMALL
No Charge or Current Charge


@<TRIPOS>ATOM
      1 C2           2.0500     1.4310    -0.3510 c          1 0GR       0.536600
      2 C4           2.7350     1.8570     0.8980 cc         1 0GR       0.073500
      3 C5           3.3600     3.0560     1.1130 cd         1 0GR      -0.127000
      4 C6           3.8430     3.0300     2.4380 cd         1 0GR      -0.209000
      5 C7           3.4940     1.8190     2.9760 cc         1 0GR       0.133900
      6 O3           1.9670     2.1170    -1.3630 o          1 0GR      -0.610100
      7 O8           2.8110     1.0780     2.0370 os         1 0GR      -0.227000
      8 N            1.4940     0.1720    -0.2570 ns         1 0GR      -0.469900
      9 CA           0.6310    -0.4710    -1.2720 c3         1 0GR       0.017700
     10 C           -0.5080    -1.2360    -0.5430 c          1 0GR       0.596100
     11 O           -0.3490    -1.7800     0.5460 o          1 0GR      -0.636100
     12 CB           1.4390    -1.4410    -2.1790 c3         1 0GR      -0.092400
     13 CG           2.4540    -0.7840    -3.1550 c3         1 0GR      -0.057700
     14 CD1          3.3450    -1.8550    -3.8250 c3         1 0GR      -0.089100
     15 CD2          1.7660     0.0950    -4.2270 c3         1 0GR      -0.089100
     16 N1          -1.7140    -1.2630    -1.2170 ns         1 0GR      -0.437900
     17 CA1         -2.9900    -1.7770    -0.6610 c3         1 0GR      -0.041300
     18 C1          -3.8350    -2.4570    -1.7780 c          1 0GR       0.714000
     19 O1          -4.0150    -1.8490    -2.8250 o          1 0GR      -0.722500
     20 CB1         -3.8060    -0.6700     0.0580 c3         1 0GR      -0.011200
     21 CG1         -3.0680     0.0070     1.1880 cc         1 0GR      -0.102400
     22 CD11        -3.0630    -0.3650     2.5290 cd         1 0GR      -0.177100
     23 CD21        -2.1930     1.1440     1.0930 ca         1 0GR      -0.087800
     24 NE1         -2.2050     0.4940     3.2600 na         1 0GR      -0.234700
     25 CE2         -1.6950     1.3920     2.3410 ca         1 0GR      -0.051200
     26 CE3         -1.8360     1.9280    -0.0140 ca         1 0GR      -0.051000
     27 CZ2         -0.7910     2.4380     2.5750 ca         1 0GR      -0.141000
     28 CZ3         -0.9320     2.9920     0.1930 ca         1 0GR      -0.149000
     29 CH2         -0.4080     3.2440     1.4820 ca         1 0GR      -0.097000
     30 OXT         -4.2120    -3.6060    -1.5960 o          1 0GR      -0.722500
     31 H5           3.4540     3.8680     0.3980 ha         1 0GR       0.153000
     32 H6           4.3880     3.8190     2.9460 ha         1 0GR       0.135000
     33 H7           3.6580     1.3810     3.9520 h4         1 0GR       0.049100
     34 H            1.5920    -0.2900     0.6420 hn         1 0GR       0.339500
     35 HA           0.1530     0.3060    -1.8810 h1         1 0GR       0.082700
     36 HB2          1.9690    -2.1520    -1.5320 hc         1 0GR       0.073200
     37 HB3          0.7330    -2.0400    -2.7690 hc         1 0GR       0.073200
     38 HG           3.1210    -0.1390    -2.5720 hc         1 0GR       0.038700
     39 HD11         2.7420    -2.5430    -4.4300 hc         1 0GR       0.030533
     40 HD12         4.0900    -1.3860    -4.4790 hc         1 0GR       0.030533
     41 HD13         3.8830    -2.4410    -3.0700 hc         1 0GR       0.030533
     42 HD21         1.0680    -0.4990    -4.8300 hc         1 0GR       0.030533
     43 HD22         1.2080     0.9200    -3.7710 hc         1 0GR       0.030533
     44 HD23         2.5110     0.5340    -4.9020 hc         1 0GR       0.030533
     45 H1          -1.7400    -0.8230    -2.1290 hn         1 0GR       0.294500
     46 HA1         -2.7550    -2.5560     0.0740 h1         1 0GR       0.067700
     47 HB21        -4.1170     0.0830    -0.6770 hc         1 0GR       0.055700
     48 HB31        -4.7310    -1.1130     0.4450 hc         1 0GR       0.055700
     49 HD1         -3.5910    -1.1850     3.0090 h4         1 0GR       0.210000
     50 HE1         -1.9990     0.4550     4.2530 hn         1 0GR       0.336000
     51 HE3         -2.2400     1.7250    -1.0030 ha         1 0GR       0.112000
     52 HZ2         -0.3950     2.6250     3.5700 ha         1 0GR       0.099000
     53 HZ3         -0.6320     3.6160    -0.6450 ha         1 0GR       0.104000
     54 HH2          0.2920     4.0620     1.6320 ha         1 0GR       0.096000
@<TRIPOS>BOND
     1     1     2 1   
     2     1     6 2   
     3     1     8 1   
     4     2     3 2   
     5     2     7 1   
     6     3     4 1   
     7     3    31 1   
     8     4     5 2   
     9     4    32 1   
    10     5     7 1   
    11     5    33 1   
    12     8     9 1   
    13     8    34 1   
    14     9    10 1   
    15     9    12 1   
    16     9    35 1   
    17    10    11 2   
    18    10    16 1   
    19    12    13 1   
    20    12    36 1   
    21    12    37 1   
    22    13    14 1   
    23    13    15 1   
    24    13    38 1   
    25    14    39 1   
    26    14    40 1   
    27    14    41 1   
    28    15    42 1   
    29    15    43 1   
    30    15    44 1   
    31    16    17 1   
    32    16    45 1   
    33    17    18 1   
    34    17    20 1   
    35    17    46 1   
    36    18    19 1   
    37    18    30 1   
    38    20    21 1   
    39    20    47 1   
    40    20    48 1   
    41    21    22 2   
    42    21    23 1   
    43    22    24 1   
    44    22    49 1   
    45    23    25 ar  
    46    23    26 ar  
    47    24    25 1   
    48    24    50 1   
    49    25    27 ar  
    50    26    28 ar  
    51    26    51 1   
    52    27    29 ar  
    53    27    52 1   
    54    28    29 ar  
    55    28    53 1   
    56    29    54 1   
@<TRIPOS>SUBSTRUCTURE
     1 0GR         1 TEMP              0 ****  ****    0 ROOT
