@<TRIPOS>MOLECULE
0GR
   54    56     1     0     0
SMALL
bcc


@<TRIPOS>ATOM
      1 C2           2.5800     1.0260     0.1930 c          1 0GR       0.603600
      2 C4           3.6930     1.1270     1.1500 cc         1 0GR       0.183200
      3 C5           4.3590     2.2230     1.5990 cd         1 0GR      -0.210300
      4 C6           5.3320     1.7460     2.5190 cd         1 0GR      -0.292300
      5 C7           5.1820     0.3990     2.5570 cc         1 0GR       0.243600
      6 O3           2.1290     2.0420    -0.3170 o          1 0GR      -0.610100
      7 O8           4.1940     0.0150     1.7320 os         1 0GR      -0.315800
      8 N            2.1320    -0.2160    -0.0570 ns         1 0GR      -0.536900
      9 CA           1.0150    -0.5060    -0.9200 c3         1 0GR       0.017700
     10 C           -0.0370    -1.3010    -0.1490 c          1 0GR       0.663100
     11 O            0.2820    -2.1080     0.7140 o          1 0GR      -0.636100
     12 CB           1.4360    -1.3250    -2.1470 c3         1 0GR      -0.092400
     13 CG           2.3620    -0.5980    -3.1210 c3         1 0GR      -0.057700
     14 CD1          2.7800    -1.5590    -4.2310 c3         1 0GR      -0.089100
     15 CD2          1.7120     0.6510    -3.7080 c3         1 0GR      -0.089100
     16 N1          -1.2910    -1.0460    -0.5250 ns         1 0GR      -0.504900
     17 CA1         -2.4340    -1.8420    -0.1560 c3         1 0GR      -0.041300
     18 C1          -2.6290    -3.0670    -1.0920 c          1 0GR       0.924600
     19 O1          -1.7990    -3.2370    -2.0000 o          1 0GR      -0.827800
     20 CB1         -3.6880    -0.9590    -0.1180 c3         1 0GR      -0.011200
     21 CG1         -3.5870     0.1810     0.8420 cc         1 0GR      -0.102400
     22 CD11        -3.9840     0.1770     2.1500 cd         1 0GR      -0.127100
     23 CD21        -3.0190     1.4770     0.6090 ca         1 0GR      -0.087800
     24 NE1         -3.6950     1.3770     2.7390 na         1 0GR      -0.184400
     25 CE2         -3.1040     2.1960     1.8230 ca         1 0GR      -0.051200
     26 CE3         -2.4520     2.1080    -0.5060 ca         1 0GR      -0.069000
     27 CZ2         -2.6340     3.5030     1.9510 ca         1 0GR      -0.159000
     28 CZ3         -1.9830     3.4010    -0.3860 ca         1 0GR      -0.167000
     29 CH2         -2.0720     4.0910     0.8340 ca         1 0GR      -0.115000
     30 OXT         -3.6200    -3.7750    -0.8260 o          1 0GR      -0.827800
     31 H5           4.1770     3.2450     1.3100 ha         1 0GR       0.171000
     32 H6           6.0480     2.3250     3.0780 ha         1 0GR       0.153000
     33 H7           5.6870    -0.3810     3.1040 h4         1 0GR       0.049100
     34 H            2.5370    -1.0000     0.4320 hn         1 0GR       0.339500
     35 HA           0.5890     0.4480    -1.2350 h1         1 0GR       0.082700
     36 HB2          1.9210    -2.2430    -1.7990 hc         1 0GR       0.073200
     37 HB3          0.5300    -1.6440    -2.6740 hc         1 0GR       0.073200
     38 HG           3.2650    -0.2950    -2.5790 hc         1 0GR       0.038700
     39 HD11         1.9100    -1.9070    -4.7930 hc         1 0GR       0.030533
     40 HD12         3.4600    -1.0780    -4.9360 hc         1 0GR       0.030533
     41 HD13         3.2880    -2.4380    -3.8300 hc         1 0GR       0.030533
     42 HD21         0.7520     0.4110    -4.1730 hc         1 0GR       0.030533
     43 HD22         1.5380     1.4160    -2.9510 hc         1 0GR       0.030533
     44 HD23         2.3480     1.0970    -4.4740 hc         1 0GR       0.030533
     45 H1          -1.4140    -0.4250    -1.3090 hn         1 0GR       0.294500
     46 HA1         -2.2610    -2.2190     0.8550 h1         1 0GR       0.067700
     47 HB21        -3.8960    -0.5820    -1.1270 hc         1 0GR       0.055700
     48 HB31        -4.5320    -1.5970     0.1440 hc         1 0GR       0.055700
     49 HD1         -4.4610    -0.6090     2.7160 h4         1 0GR       0.160000
     50 HE1         -3.9020     1.6150     3.6940 hn         1 0GR       0.285700
     51 HE3         -2.3830     1.5980    -1.4600 ha         1 0GR       0.130000
     52 HZ2         -2.7020     4.0370     2.8900 ha         1 0GR       0.117000
     53 HZ3         -1.5370     3.8900    -1.2420 ha         1 0GR       0.122000
     54 HH2         -1.6940     5.1030     0.9010 ha         1 0GR       0.114000
@<TRIPOS>BOND
     1     1     2 1   
     2     1     6 2   
     3     1     8 1   
     4     2     3 2   
     5     2     7 1   
     6     3     4 1   
     7     3    31 1   
     8     4     5 2   
     9     4    32 1   
    10     5     7 1   
    11     5    33 1   
    12     8     9 1   
    13     8    34 1   
    14     9    10 1   
    15     9    12 1   
    16     9    35 1   
    17    10    11 2   
    18    10    16 1   
    19    12    13 1   
    20    12    36 1   
    21    12    37 1   
    22    13    14 1   
    23    13    15 1   
    24    13    38 1   
    25    14    39 1   
    26    14    40 1   
    27    14    41 1   
    28    15    42 1   
    29    15    43 1   
    30    15    44 1   
    31    16    17 1   
    32    16    45 1   
    33    17    18 1   
    34    17    20 1   
    35    17    46 1   
    36    18    19 1   
    37    18    30 1   
    38    20    21 1   
    39    20    47 1   
    40    20    48 1   
    41    21    22 2   
    42    21    23 1   
    43    22    24 1   
    44    22    49 1   
    45    23    25 ar  
    46    23    26 ar  
    47    24    25 1   
    48    24    50 1   
    49    25    27 ar  
    50    26    28 ar  
    51    26    51 1   
    52    27    29 ar  
    53    27    52 1   
    54    28    29 ar  
    55    28    53 1   
    56    29    54 1   
@<TRIPOS>SUBSTRUCTURE
     1 0GR         1 TEMP              0 ****  ****    0 ROOT
