@<TRIPOS>MOLECULE
0GV
   73    76     1     0     0
SMALL
No Charge or Current Charge


@<TRIPOS>ATOM
      1 C10          3.9150     0.6100    -0.1460 c6         1 0GV      -0.013800
      2 C11          1.5110     1.6910     0.0050 c6         1 0GV      -0.069400
      3 C12          0.0140     1.4800     0.3520 c6         1 0GV      -0.063400
      4 C13         -0.6230     0.3120    -0.4640 c5         1 0GV      -0.041000
      5 C14          0.2260    -0.9720    -0.1600 c5         1 0GV      -0.049700
      6 C15         -0.6000    -2.0720    -0.8810 c5         1 0GV      -0.068400
      7 C16         -2.0750    -1.6620    -0.5840 c5         1 0GV      -0.078400
      8 C17         -2.0150    -0.2270     0.0650 c5         1 0GV      -0.053700
      9 C18         -0.6880     0.7340    -1.9760 c3         1 0GV      -0.079100
     10 C9           2.3820     0.4030     0.2120 c6         1 0GV      -0.042700
     11 C19          4.1160     1.0750    -1.6300 c3         1 0GV      -0.081100
     12 C1           4.5180     1.6820     0.8320 c6         1 0GV      -0.068400
     13 C2           6.0630     1.7640     0.8130 c6         1 0GV      -0.074400
     14 C3           6.6810     0.3900     1.1350 c6         1 0GV       0.176300
     15 O1           8.1090     0.4810     1.1160 oh         1 0GV      -0.657000
     16 C4           6.2010    -0.6590     0.1110 c6         1 0GV      -0.088200
     17 C5           4.6740    -0.7260    -0.0020 c2         1 0GV      -0.034400
     18 C6           4.0530    -1.9250    -0.0450 ce         1 0GV      -0.316200
     19 C7           2.5890    -2.1120    -0.1810 c          1 0GV       0.574300
     20 O7           2.1020    -3.2270    -0.0600 o          1 0GV      -0.527100
     21 C8           1.7510    -0.8480    -0.5000 c6         1 0GV      -0.141700
     22 C20         -3.3270     0.6110    -0.1800 c3         1 0GV      -0.047700
     23 C21         -3.2360     2.0760     0.3210 c3         1 0GV      -0.086100
     24 C22         -4.5790    -0.1100     0.4200 c3         1 0GV      -0.076400
     25 C23         -5.9560     0.4720     0.0090 c3         1 0GV      -0.074400
     26 C24         -7.1420    -0.4010     0.4900 c3         1 0GV      -0.073400
     27 C25         -8.5420     0.0810     0.0170 c3         1 0GV      -0.059700
     28 C26         -9.6330    -0.9460     0.3950 c3         1 0GV      -0.086600
     29 C27         -8.9090     1.4880     0.5460 c3         1 0GV      -0.086600
     30 H1           1.5930     2.0570    -1.0250 hc         1 0GV       0.041200
     31 H2           1.8850     2.5050     0.6380 hc         1 0GV       0.041200
     32 H3          -0.0810     1.2830     1.4290 hc         1 0GV       0.042700
     33 H4          -0.5070     2.4240     0.1660 hc         1 0GV       0.042700
     34 H5           0.2200    -1.1790     0.9190 hc         1 0GV       0.051700
     35 H6          -0.3960    -2.0950    -1.9580 hc         1 0GV       0.052200
     36 H7          -0.3910    -3.0770    -0.5000 hc         1 0GV       0.052200
     37 H8          -2.6650    -1.6710    -1.5080 hc         1 0GV       0.041200
     38 H9          -2.5510    -2.3790     0.0950 hc         1 0GV       0.041200
     39 H10         -1.9550    -0.3380     1.1550 hc         1 0GV       0.045700
     40 H11         -1.2450     0.0200    -2.5920 hc         1 0GV       0.032033
     41 H12         -1.1880     1.7020    -2.0930 hc         1 0GV       0.032033
     42 H13          0.3050     0.8280    -2.4270 hc         1 0GV       0.032033
     43 H14          2.3390     0.1790     1.2880 hc         1 0GV       0.049700
     44 H15          3.6710     0.3750    -2.3460 hc         1 0GV       0.039700
     45 H16          3.6810     2.0630    -1.8160 hc         1 0GV       0.039700
     46 H17          5.1760     1.1520    -1.8950 hc         1 0GV       0.039700
     47 H18          4.1210     2.6790     0.6010 hc         1 0GV       0.046700
     48 H19          4.2010     1.4620     1.8610 hc         1 0GV       0.046700
     49 H20          6.4180     2.1240    -0.1620 hc         1 0GV       0.056700
     50 H21          6.3980     2.5020     1.5540 hc         1 0GV       0.056700
     51 H22          6.3410     0.0830     2.1350 h1         1 0GV       0.032700
     52 H23          8.4500    -0.3910     1.4130 ho         1 0GV       0.444000
     53 H24          6.6240    -0.4330    -0.8760 hc         1 0GV       0.059700
     54 H25          6.6010    -1.6430     0.3900 hc         1 0GV       0.059700
     55 H26          4.6180    -2.8490     0.0580 ha         1 0GV       0.195000
     56 H27          1.8720    -0.6930    -1.5770 hc         1 0GV       0.074700
     57 H28         -3.4900     0.6640    -1.2640 hc         1 0GV       0.045700
     58 H29         -2.8630     2.1180     1.3510 hc         1 0GV       0.031700
     59 H30         -2.5770     2.6640    -0.3240 hc         1 0GV       0.031700
     60 H31         -4.2030     2.5860     0.2900 hc         1 0GV       0.031700
     61 H32         -4.5740    -1.1610     0.1110 hc         1 0GV       0.038700
     62 H33         -4.5000    -0.1120     1.5140 hc         1 0GV       0.038700
     63 H34         -6.0700     1.4770     0.4280 hc         1 0GV       0.037700
     64 H35         -5.9980     0.5660    -1.0830 hc         1 0GV       0.037700
     65 H36         -6.9860    -1.4240     0.1270 hc         1 0GV       0.037200
     66 H37         -7.1280    -0.4530     1.5860 hc         1 0GV       0.037200
     67 H38         -8.5210     0.1370    -1.0790 hc         1 0GV       0.043700
     68 H39         -9.7100    -1.0520     1.4840 hc         1 0GV       0.031533
     69 H40        -10.6120    -0.6330     0.0110 hc         1 0GV       0.031533
     70 H41         -9.4050    -1.9310    -0.0310 hc         1 0GV       0.031533
     71 H42         -8.8710     1.5160     1.6420 hc         1 0GV       0.031533
     72 H43         -8.2260     2.2510     0.1560 hc         1 0GV       0.031533
     73 H44         -9.9230     1.7660     0.2330 hc         1 0GV       0.031533
@<TRIPOS>BOND
     1     1    10 1   
     2     1    11 1   
     3     1    12 1   
     4     1    17 1   
     5     2     3 1   
     6     2    10 1   
     7     2    30 1   
     8     2    31 1   
     9     3     4 1   
    10     3    32 1   
    11     3    33 1   
    12     4     5 1   
    13     4     8 1   
    14     4     9 1   
    15     5     6 1   
    16     5    21 1   
    17     5    34 1   
    18     6     7 1   
    19     6    35 1   
    20     6    36 1   
    21     7     8 1   
    22     7    37 1   
    23     7    38 1   
    24     8    22 1   
    25     8    39 1   
    26     9    40 1   
    27     9    41 1   
    28     9    42 1   
    29    10    21 1   
    30    10    43 1   
    31    11    44 1   
    32    11    45 1   
    33    11    46 1   
    34    12    13 1   
    35    12    47 1   
    36    12    48 1   
    37    13    14 1   
    38    13    49 1   
    39    13    50 1   
    40    14    15 1   
    41    14    16 1   
    42    14    51 1   
    43    15    52 1   
    44    16    17 1   
    45    16    53 1   
    46    16    54 1   
    47    17    18 2   
    48    18    19 1   
    49    18    55 1   
    50    19    20 2   
    51    19    21 1   
    52    21    56 1   
    53    22    23 1   
    54    22    24 1   
    55    22    57 1   
    56    23    58 1   
    57    23    59 1   
    58    23    60 1   
    59    24    25 1   
    60    24    61 1   
    61    24    62 1   
    62    25    26 1   
    63    25    63 1   
    64    25    64 1   
    65    26    27 1   
    66    26    65 1   
    67    26    66 1   
    68    27    28 1   
    69    27    29 1   
    70    27    67 1   
    71    28    68 1   
    72    28    69 1   
    73    28    70 1   
    74    29    71 1   
    75    29    72 1   
    76    29    73 1   
@<TRIPOS>SUBSTRUCTURE
     1 0GV         1 TEMP              0 ****  ****    0 ROOT
