@<TRIPOS>MOLECULE
0GV
   73    76     1     0     0
SMALL
bcc


@<TRIPOS>ATOM
      1 C10          3.7780     0.6170    -0.1470 c6         1 0GV      -0.013800
      2 C11          1.4520     1.5950     0.3220 c6         1 0GV      -0.069400
      3 C12         -0.0010     1.3240     0.6950 c6         1 0GV      -0.063400
      4 C13         -0.6090     0.2480    -0.2010 c5         1 0GV      -0.041000
      5 C14          0.2280    -1.0330    -0.0020 c5         1 0GV      -0.049700
      6 C15         -0.6060    -2.1090    -0.6930 c5         1 0GV      -0.068400
      7 C16         -2.0570    -1.6950    -0.3860 c5         1 0GV      -0.078400
      8 C17         -2.0090    -0.2650     0.2130 c5         1 0GV      -0.053700
      9 C18         -0.6230     0.6920    -1.6690 c3         1 0GV      -0.079100
     10 C9           2.3330     0.3430     0.3390 c6         1 0GV      -0.042700
     11 C19          3.8140     1.1670    -1.5830 c3         1 0GV      -0.081100
     12 C1           4.4420     1.6250     0.8170 c6         1 0GV      -0.068400
     13 C2           5.9480     1.7720     0.6450 c6         1 0GV      -0.074400
     14 C3           6.6300     0.4310     0.8220 c6         1 0GV       0.153100
     15 O1           8.0210     0.6020     0.6640 oh         1 0GV      -0.594800
     16 C4           6.0690    -0.5640    -0.1950 c6         1 0GV      -0.088200
     17 C5           4.5740    -0.6700    -0.1290 c2         1 0GV      -0.034400
     18 C6           3.9900    -1.8750    -0.0780 ce         1 0GV      -0.266200
     19 C7           2.5410    -2.0800    -0.1000 c          1 0GV       0.574300
     20 O7           2.0800    -3.1940     0.0780 o          1 0GV      -0.527100
     21 C8           1.6930    -0.8610    -0.3880 c6         1 0GV      -0.141700
     22 C20         -3.2480     0.5590    -0.1650 c3         1 0GV      -0.047700
     23 C21         -3.1760     2.0140     0.2900 c3         1 0GV      -0.086100
     24 C22         -4.5100    -0.1110     0.4000 c3         1 0GV      -0.076400
     25 C23         -5.8270     0.4240    -0.1520 c3         1 0GV      -0.074400
     26 C24         -7.0330    -0.3340     0.3910 c3         1 0GV      -0.073400
     27 C25         -8.3830     0.1150    -0.1710 c3         1 0GV      -0.059700
     28 C26         -9.4920    -0.8260     0.2900 c3         1 0GV      -0.086600
     29 C27         -8.7190     1.5540     0.2090 c3         1 0GV      -0.086600
     30 H1           1.4800     2.0750    -0.6590 hc         1 0GV       0.041200
     31 H2           1.8630     2.3270     1.0200 hc         1 0GV       0.041200
     32 H3          -0.0620     0.9870     1.7360 hc         1 0GV       0.042700
     33 H4          -0.5560     2.2610     0.6460 hc         1 0GV       0.042700
     34 H5           0.2030    -1.2440     1.0770 hc         1 0GV       0.051700
     35 H6          -0.4140    -2.1110    -1.7700 hc         1 0GV       0.052200
     36 H7          -0.3780    -3.1080    -0.3320 hc         1 0GV       0.052200
     37 H8          -2.6720    -1.7060    -1.2900 hc         1 0GV       0.041200
     38 H9          -2.5250    -2.3960     0.3060 hc         1 0GV       0.041200
     39 H10         -1.9970    -0.3480     1.3090 hc         1 0GV       0.045700
     40 H11         -1.1630    -0.0110    -2.3060 hc         1 0GV       0.032033
     41 H12         -1.1080     1.6630    -1.7820 hc         1 0GV       0.032033
     42 H13          0.3770     0.7940    -2.0910 hc         1 0GV       0.032033
     43 H14          2.4210     0.0440     1.3940 hc         1 0GV       0.049700
     44 H15          3.3020     0.5060    -2.2850 hc         1 0GV       0.039700
     45 H16          3.3440     2.1490    -1.6380 hc         1 0GV       0.039700
     46 H17          4.8370     1.2840    -1.9390 hc         1 0GV       0.039700
     47 H18          3.9720     2.6010     0.6930 hc         1 0GV       0.046700
     48 H19          4.2340     1.3090     1.8450 hc         1 0GV       0.046700
     49 H20          6.1880     2.1780    -0.3430 hc         1 0GV       0.056700
     50 H21          6.3250     2.4860     1.3810 hc         1 0GV       0.056700
     51 H22          6.4010     0.0570     1.8310 h1         1 0GV       0.032700
     52 H23          8.4550    -0.2270     0.8860 ho         1 0GV       0.405000
     53 H24          6.3590    -0.2240    -1.1960 hc         1 0GV       0.059700
     54 H25          6.5150    -1.5510    -0.0540 hc         1 0GV       0.059700
     55 H26          4.6000    -2.7720    -0.0320 ha         1 0GV       0.145000
     56 H27          1.7640    -0.7080    -1.4740 hc         1 0GV       0.074700
     57 H28         -3.3340     0.5460    -1.2600 hc         1 0GV       0.045700
     58 H29         -2.9790     2.0830     1.3630 hc         1 0GV       0.031700
     59 H30         -2.3950     2.5710    -0.2270 hc         1 0GV       0.031700
     60 H31         -4.1110     2.5390     0.0940 hc         1 0GV       0.031700
     61 H32         -4.4760    -1.1860     0.1990 hc         1 0GV       0.038700
     62 H33         -4.5040    -0.0120     1.4920 hc         1 0GV       0.038700
     63 H34         -5.9310     1.4880     0.0740 hc         1 0GV       0.037700
     64 H35         -5.8160     0.3460    -1.2460 hc         1 0GV       0.037700
     65 H36         -6.9030    -1.4010     0.1780 hc         1 0GV       0.037200
     66 H37         -7.0550    -0.2480     1.4850 hc         1 0GV       0.037200
     67 H38         -8.3240     0.0570    -1.2650 hc         1 0GV       0.043700
     68 H39         -9.5840    -0.8130     1.3790 hc         1 0GV       0.031533
     69 H40        -10.4590    -0.5370    -0.1250 hc         1 0GV       0.031533
     70 H41         -9.2950    -1.8560    -0.0130 hc         1 0GV       0.031533
     71 H42         -8.7790     1.6630     1.2950 hc         1 0GV       0.031533
     72 H43         -7.9750     2.2630    -0.1540 hc         1 0GV       0.031533
     73 H44         -9.6830     1.8540    -0.2050 hc         1 0GV       0.031533
@<TRIPOS>BOND
     1     1    10 1   
     2     1    11 1   
     3     1    12 1   
     4     1    17 1   
     5     2     3 1   
     6     2    10 1   
     7     2    30 1   
     8     2    31 1   
     9     3     4 1   
    10     3    32 1   
    11     3    33 1   
    12     4     5 1   
    13     4     8 1   
    14     4     9 1   
    15     5     6 1   
    16     5    21 1   
    17     5    34 1   
    18     6     7 1   
    19     6    35 1   
    20     6    36 1   
    21     7     8 1   
    22     7    37 1   
    23     7    38 1   
    24     8    22 1   
    25     8    39 1   
    26     9    40 1   
    27     9    41 1   
    28     9    42 1   
    29    10    21 1   
    30    10    43 1   
    31    11    44 1   
    32    11    45 1   
    33    11    46 1   
    34    12    13 1   
    35    12    47 1   
    36    12    48 1   
    37    13    14 1   
    38    13    49 1   
    39    13    50 1   
    40    14    15 1   
    41    14    16 1   
    42    14    51 1   
    43    15    52 1   
    44    16    17 1   
    45    16    53 1   
    46    16    54 1   
    47    17    18 2   
    48    18    19 1   
    49    18    55 1   
    50    19    20 2   
    51    19    21 1   
    52    21    56 1   
    53    22    23 1   
    54    22    24 1   
    55    22    57 1   
    56    23    58 1   
    57    23    59 1   
    58    23    60 1   
    59    24    25 1   
    60    24    61 1   
    61    24    62 1   
    62    25    26 1   
    63    25    63 1   
    64    25    64 1   
    65    26    27 1   
    66    26    65 1   
    67    26    66 1   
    68    27    28 1   
    69    27    29 1   
    70    27    67 1   
    71    28    68 1   
    72    28    69 1   
    73    28    70 1   
    74    29    71 1   
    75    29    72 1   
    76    29    73 1   
@<TRIPOS>SUBSTRUCTURE
     1 0GV         1 TEMP              0 ****  ****    0 ROOT
