@<TRIPOS>MOLECULE
0GW
   31    33     1     0     0
SMALL
No Charge or Current Charge


@<TRIPOS>ATOM
      1 C4          22.4850     5.9880     0.0060 ca         1 0GW       0.630300
      2 C6          20.2130     5.5120     0.2900 ca         1 0GW       0.357700
      3 C7          20.0400     5.3620    -1.1000 ca         1 0GW      -0.133000
      4 C8          21.1340     5.5340    -1.9590 ca         1 0GW       0.003000
      5 C10         22.1030     5.5670    -4.1920 ca         1 0GW      -0.081000
      6 C13         22.3860     5.8530    -1.3990 ca         1 0GW      -0.097000
      7 C1          25.3550     6.7960     2.2290 c3         1 0GW      -0.099100
      8 C2          23.8790     6.4520     1.9750 c3         1 0GW       0.172600
      9 O3          23.7100     6.3010     0.5550 os         1 0GW      -0.465300
     10 N5          21.4250     5.8210     0.8310 nb         1 0GW      -0.795000
     11 C9          20.9910     5.3900    -3.3510 ca         1 0GW      -0.109000
     12 C11         23.3560     5.8860    -3.6410 ca         1 0GW      -0.120000
     13 C12         23.5010     6.0290    -2.2500 ca         1 0GW      -0.059000
     14 C14         19.0580     5.3330     1.2080 cc         1 0GW       0.306900
     15 N15         17.7920     5.0310     0.9140 nd         1 0GW      -0.484300
     16 N16         17.1940     5.0000     2.1540 ns         1 0GW      -0.372400
     17 C18         18.0030     5.2620     3.2170 c          1 0GW       0.562000
     18 O19         17.7520     5.3030     4.4060 o          1 0GW      -0.562000
     19 N20         19.1690     5.4670     2.5750 ns         1 0GW      -0.516900
     20 H1          19.0610     5.1150    -1.5000 ha         1 0GW       0.146000
     21 H2          21.9940     5.4560    -5.2690 ha         1 0GW       0.118000
     22 H3          25.5360     6.9220     3.3030 hc         1 0GW       0.048700
     23 H4          26.0070     5.9950     1.8620 hc         1 0GW       0.048700
     24 H5          25.6270     7.7300     1.7230 hc         1 0GW       0.048700
     25 H6          23.2440     7.2600     2.3630 h1         1 0GW       0.048700
     26 H7          23.6250     5.5220     2.5020 h1         1 0GW       0.048700
     27 H8          20.0230     5.1430    -3.7820 ha         1 0GW       0.123000
     28 H9          24.2160     6.0220    -4.2930 ha         1 0GW       0.119000
     29 H10         24.4790     6.2770    -1.8420 ha         1 0GW       0.132000
     30 H11         16.2040     4.7950     2.3090 hn         1 0GW       0.490000
     31 H12         20.0280     5.6940     3.0580 hn         1 0GW       0.490000
@<TRIPOS>BOND
     1     1     6 ar  
     2     1     9 1   
     3     1    10 ar  
     4     2     3 ar  
     5     2    10 ar  
     6     2    14 1   
     7     3     4 ar  
     8     3    20 1   
     9     4     6 ar  
    10     4    11 ar  
    11     5    11 ar  
    12     5    12 ar  
    13     5    21 1   
    14     6    13 ar  
    15     7     8 1   
    16     7    22 1   
    17     7    23 1   
    18     7    24 1   
    19     8     9 1   
    20     8    25 1   
    21     8    26 1   
    22    11    27 1   
    23    12    13 ar  
    24    12    28 1   
    25    13    29 1   
    26    14    15 2   
    27    14    19 1   
    28    15    16 1   
    29    16    17 1   
    30    16    30 1   
    31    17    18 2   
    32    17    19 1   
    33    19    31 1   
@<TRIPOS>SUBSTRUCTURE
     1 0GW         1 TEMP              0 ****  ****    0 ROOT
