@<TRIPOS>MOLECULE
0GW
   31    33     1     0     0
SMALL
bcc


@<TRIPOS>ATOM
      1 C4          22.4480     5.9850     0.0220 ca         1 0GW       0.695600
      2 C6          20.2250     5.5160     0.2560 ca         1 0GW       0.423000
      3 C7          20.0210     5.3630    -1.0830 ca         1 0GW      -0.216300
      4 C8          21.1230     5.5340    -1.9560 ca         1 0GW       0.003000
      5 C10         22.1030     5.5700    -4.1590 ca         1 0GW      -0.099000
      6 C13         22.3830     5.8540    -1.4040 ca         1 0GW      -0.162300
      7 C1          25.2130     6.7600     2.2340 c3         1 0GW      -0.099100
      8 C2          23.7710     6.4240     1.9430 c3         1 0GW       0.149400
      9 O3          23.6360     6.2880     0.5240 os         1 0GW      -0.442100
     10 N5          21.4260     5.8250     0.8030 nb         1 0GW      -0.795000
     11 C9          21.0070     5.3960    -3.3550 ca         1 0GW      -0.127000
     12 C11         23.3560     5.8860    -3.6030 ca         1 0GW      -0.138000
     13 C12         23.4970     6.0270    -2.2460 ca         1 0GW      -0.077000
     14 C14         19.1480     5.3540     1.2280 cc         1 0GW       0.306900
     15 N15         17.9220     5.0430     0.9640 nd         1 0GW      -0.484300
     16 N16         17.3110     5.0130     2.1690 ns         1 0GW      -0.325900
     17 C18         18.1410     5.3000     3.2130 c          1 0GW       0.771500
     18 O19         17.8930     5.3500     4.4040 o          1 0GW      -0.637500
     19 N20         19.3350     5.5210     2.5670 ns         1 0GW      -0.470400
     20 H1          19.0440     5.1180    -1.4780 ha         1 0GW       0.164000
     21 H2          22.0070     5.4640    -5.2320 ha         1 0GW       0.136000
     22 H3          25.3450     6.8660     3.3100 hc         1 0GW       0.048700
     23 H4          25.8860     5.9740     1.8910 hc         1 0GW       0.048700
     24 H5          25.5070     7.7000     1.7670 hc         1 0GW       0.048700
     25 H6          23.1050     7.2110     2.3040 h1         1 0GW       0.048700
     26 H7          23.4770     5.4920     2.4310 h1         1 0GW       0.048700
     27 H8          20.0430     5.1520    -3.7820 ha         1 0GW       0.141000
     28 H9          24.2120     6.0190    -4.2520 ha         1 0GW       0.137000
     29 H10         24.4640     6.2700    -1.8270 ha         1 0GW       0.150000
     30 H11         16.3340     4.7770     2.2370 hn         1 0GW       0.376500
     31 H12         20.2080     5.7640     3.0110 hn         1 0GW       0.376500
@<TRIPOS>BOND
     1     1     6 ar  
     2     1     9 1   
     3     1    10 ar  
     4     2     3 ar  
     5     2    10 ar  
     6     2    14 1   
     7     3     4 ar  
     8     3    20 1   
     9     4     6 ar  
    10     4    11 ar  
    11     5    11 ar  
    12     5    12 ar  
    13     5    21 1   
    14     6    13 ar  
    15     7     8 1   
    16     7    22 1   
    17     7    23 1   
    18     7    24 1   
    19     8     9 1   
    20     8    25 1   
    21     8    26 1   
    22    11    27 1   
    23    12    13 ar  
    24    12    28 1   
    25    13    29 1   
    26    14    15 2   
    27    14    19 1   
    28    15    16 1   
    29    16    17 1   
    30    16    30 1   
    31    17    18 2   
    32    17    19 1   
    33    19    31 1   
@<TRIPOS>SUBSTRUCTURE
     1 0GW         1 TEMP              0 ****  ****    0 ROOT
