@<TRIPOS>MOLECULE
0GX
   58    61     1     0     0
SMALL
bcc


@<TRIPOS>ATOM
      1 CBD         -2.6620     5.0880     1.8780 c3         1 0GX      -0.091100
      2 CAT         -3.4590     4.0650     1.0810 c3         1 0GX      -0.079400
      3 CAS         -2.6330     2.8240     0.8270 c3         1 0GX       0.131400
      4 OAR         -3.4360     1.8830     0.1090 os         1 0GX      -0.276900
      5 CAN         -2.9090     0.7150    -0.2090 cc         1 0GX       0.215000
      6 SAO         -1.2510     0.3040     0.0350 ss         1 0GX      -0.123800
      7 CAM         -3.5900    -0.3250    -0.7730 cd         1 0GX      -0.135900
      8 BR1         -5.4110    -0.1990    -1.1770 br         1 0GX      -0.056100
      9 CAL         -2.7980    -1.4850    -1.0090 cd         1 0GX       0.030700
     10 CAP         -3.3450    -2.7320    -1.6210 c3         1 0GX      -0.040800
     11 CAK         -1.5020    -1.2810    -0.6280 cc         1 0GX      -0.153700
     12 CAI         -0.3910    -2.2630    -0.6040 c          1 0GX       0.719700
     13 OAJ         -0.5700    -3.3930    -0.1690 o          1 0GX      -0.586100
     14 NAE          0.8080    -1.8070    -1.0190 n          1 0GX      -0.470800
     15 CAD          1.0570    -0.7910    -2.0440 c5         1 0GX       0.097200
     16 CAC          2.0830     0.1940    -1.4970 c6         1 0GX      -0.072900
     17 CAG          1.6100    -1.6340    -3.2090 c5         1 0GX      -0.098900
     18 CAH          2.2450    -2.8660    -2.5310 c5         1 0GX      -0.098900
     19 CAA          2.0110    -2.6350    -1.0290 c5         1 0GX       0.097200
     20 CAF          3.1290    -1.8240    -0.3750 c6         1 0GX      -0.072900
     21 CAB          3.3970    -0.5180    -1.1390 c6         1 0GX      -0.008400
     22 CAU          4.3220     0.3980    -0.3770 ca         1 0GX      -0.117300
     23 CAZ          3.9660     0.8890     0.8770 ca         1 0GX      -0.080000
     24 CAV          5.5490     0.8060    -0.8780 ca         1 0GX       0.135900
     25 FBA          5.9470     0.3660    -2.0880 f          1 0GX      -0.147900
     26 CAW          6.3940     1.6540    -0.1890 ca         1 0GX      -0.171000
     27 CAX          6.0040     2.1220     1.0560 ca         1 0GX      -0.104000
     28 CAY          4.7800     1.7510     1.6030 ca         1 0GX      -0.103300
     29 CBB          4.3370     2.2990     2.9370 c3         1 0GX       0.201100
     30 NBC          3.6320     1.3050     3.7270 n8         1 0GX      -0.890800
     31 H1          -2.3730     4.6940     2.8540 hc         1 0GX       0.038367
     32 H2          -1.7500     5.3780     1.3540 hc         1 0GX       0.038367
     33 H3          -3.2480     5.9900     2.0450 hc         1 0GX       0.038367
     34 H4          -4.3650     3.7920     1.6270 hc         1 0GX       0.060200
     35 H5          -3.7730     4.4950     0.1280 hc         1 0GX       0.060200
     36 H6          -1.7420     3.0740     0.2390 h1         1 0GX       0.044700
     37 H7          -2.3060     2.3780     1.7730 h1         1 0GX       0.044700
     38 H8          -3.7890    -2.5200    -2.5950 hc         1 0GX       0.058700
     39 H9          -2.5770    -3.4870    -1.7560 hc         1 0GX       0.058700
     40 H10         -4.1280    -3.1580    -0.9930 hc         1 0GX       0.058700
     41 H11          0.1410    -0.2740    -2.3220 h1         1 0GX       0.084200
     42 H12          2.2740     0.9740    -2.2360 hc         1 0GX       0.053700
     43 H13          1.6640     0.6890    -0.6160 hc         1 0GX       0.053700
     44 H14          0.7950    -1.9310    -3.8690 hc         1 0GX       0.053450
     45 H15          2.3210    -1.0660    -3.8110 hc         1 0GX       0.053450
     46 H16          1.7460    -3.7820    -2.8480 hc         1 0GX       0.053450
     47 H17          3.3050    -2.9790    -2.7620 hc         1 0GX       0.053450
     48 H18          1.8460    -3.5610    -0.4820 h1         1 0GX       0.084200
     49 H19          2.8440    -1.6180     0.6600 hc         1 0GX       0.053700
     50 H20          4.0420    -2.4230    -0.3410 hc         1 0GX       0.053700
     51 H21          3.8830    -0.7920    -2.0780 hc         1 0GX       0.062700
     52 H22          3.0180     0.5910     1.3120 ha         1 0GX       0.155000
     53 H23          7.3460     1.9380    -0.6190 ha         1 0GX       0.149000
     54 H24          6.6650     2.7830     1.6040 ha         1 0GX       0.131000
     55 H25          5.2090     2.7360     3.4420 h1         1 0GX       0.034700
     56 H26          3.6480     3.1300     2.7600 h1         1 0GX       0.034700
     57 H27          4.2850     0.6070     4.0590 hn         1 0GX       0.343800
     58 H28          3.2480     1.7460     4.5530 hn         1 0GX       0.343800
@<TRIPOS>BOND
     1     1     2 1   
     2     1    31 1   
     3     1    32 1   
     4     1    33 1   
     5     2     3 1   
     6     2    34 1   
     7     2    35 1   
     8     3     4 1   
     9     3    36 1   
    10     3    37 1   
    11     4     5 1   
    12     5     6 1   
    13     5     7 2   
    14     6    11 1   
    15     7     8 1   
    16     7     9 1   
    17     9    10 1   
    18     9    11 2   
    19    10    38 1   
    20    10    39 1   
    21    10    40 1   
    22    11    12 1   
    23    12    13 2   
    24    12    14 1   
    25    14    15 1   
    26    14    19 1   
    27    15    16 1   
    28    15    17 1   
    29    15    41 1   
    30    16    21 1   
    31    16    42 1   
    32    16    43 1   
    33    17    18 1   
    34    17    44 1   
    35    17    45 1   
    36    18    19 1   
    37    18    46 1   
    38    18    47 1   
    39    19    20 1   
    40    19    48 1   
    41    20    21 1   
    42    20    49 1   
    43    20    50 1   
    44    21    22 1   
    45    21    51 1   
    46    22    23 ar  
    47    22    24 ar  
    48    23    28 ar  
    49    23    52 1   
    50    24    25 1   
    51    24    26 ar  
    52    26    27 ar  
    53    26    53 1   
    54    27    28 ar  
    55    27    54 1   
    56    28    29 1   
    57    29    30 1   
    58    29    55 1   
    59    29    56 1   
    60    30    57 1   
    61    30    58 1   
@<TRIPOS>SUBSTRUCTURE
     1 0GX         1 TEMP              0 ****  ****    0 ROOT
