@<TRIPOS>MOLECULE
0GX
   58    61     1     0     0
SMALL
No Charge or Current Charge


@<TRIPOS>ATOM
      1 CBD         -3.1250     5.3920     1.4050 c3         1 0GX      -0.091100
      2 CAT         -3.8360     4.0890     0.9890 c3         1 0GX      -0.079400
      3 CAS         -2.8570     2.9690     0.5890 c3         1 0GX       0.154600
      4 OAR         -3.6350     1.8200     0.2260 os         1 0GX      -0.300100
      5 CAN         -3.0060     0.6700    -0.1750 cc         1 0GX       0.070100
      6 SAO         -1.2850     0.4090    -0.3040 ss         1 0GX       0.166000
      7 CAM         -3.7670    -0.4100    -0.5170 cd         1 0GX      -0.135900
      8 Br1         -5.6640    -0.4140    -0.4570 br         1 0GX      -0.056100
      9 CAL         -2.9580    -1.5330    -0.9060 cd         1 0GX       0.030700
     10 CAP         -3.5550    -2.8610    -1.3250 c3         1 0GX      -0.040800
     11 CAK         -1.5940    -1.2470    -0.8510 cc         1 0GX      -0.298600
     12 CAI         -0.5020    -2.2420    -1.0570 c          1 0GX       0.652700
     13 OAJ         -0.6940    -3.4500    -1.0840 o          1 0GX      -0.586100
     14 NAE          0.8080    -1.7200    -1.1710 n          1 0GX      -0.403800
     15 CAD          1.1300    -0.6400    -2.1250 c5         1 0GX       0.097200
     16 CAC          2.2150     0.2830    -1.4980 c6         1 0GX      -0.072900
     17 CAG          1.6400    -1.5010    -3.3240 c5         1 0GX      -0.098900
     18 CAH          2.2130    -2.8060    -2.6640 c5         1 0GX      -0.098900
     19 CAA          1.9880    -2.5990    -1.1340 c5         1 0GX       0.097200
     20 CAF          3.1470    -1.8490    -0.4140 c6         1 0GX      -0.072900
     21 CAB          3.5060    -0.5000    -1.1090 c6         1 0GX      -0.008400
     22 CAU          4.4670     0.3550    -0.2580 ca         1 0GX      -0.117300
     23 CAZ          4.0610     0.8190     1.0130 ca         1 0GX      -0.062000
     24 CAV          5.7600     0.6930    -0.7200 ca         1 0GX       0.171000
     25 FBA          6.1970     0.2740    -1.9300 f          1 0GX      -0.183000
     26 CAW          6.6200     1.4730     0.0690 ca         1 0GX      -0.153000
     27 CAX          6.2030     1.9290     1.3300 ca         1 0GX      -0.086000
     28 CAY          4.9200     1.6040     1.8080 ca         1 0GX      -0.103300
     29 CBB          4.4590     2.1010     3.1710 c3         1 0GX       0.201100
     30 NBC          4.6610     1.0780     4.2120 n8         1 0GX      -1.001200
     31 H1          -2.4710     5.2190     2.2680 hc         1 0GX       0.038367
     32 H2          -2.5160     5.7820     0.5800 hc         1 0GX       0.038367
     33 H3          -3.8600     6.1580     1.6800 hc         1 0GX       0.038367
     34 H4          -4.4620     3.7410     1.8200 hc         1 0GX       0.060200
     35 H5          -4.5060     4.2990     0.1460 hc         1 0GX       0.060200
     36 H6          -2.2410     3.3030    -0.2560 h1         1 0GX       0.044700
     37 H7          -2.1960     2.7390     1.4350 h1         1 0GX       0.044700
     38 H8          -4.6210    -2.7880    -1.5610 hc         1 0GX       0.058700
     39 H9          -3.0640    -3.2470    -2.2250 hc         1 0GX       0.058700
     40 H10         -3.4440    -3.6070    -0.5300 hc         1 0GX       0.058700
     41 H11          0.2640    -0.0380    -2.4310 h1         1 0GX       0.084200
     42 H12          2.4700     1.0870    -2.2010 hc         1 0GX       0.053700
     43 H13          1.7870     0.7730    -0.6140 hc         1 0GX       0.053700
     44 H14          0.8120    -1.7500    -3.9980 hc         1 0GX       0.053450
     45 H15          2.3850    -0.9710    -3.9290 hc         1 0GX       0.053450
     46 H16          1.6620    -3.6850    -3.0190 hc         1 0GX       0.053450
     47 H17          3.2670    -2.9780    -2.9110 hc         1 0GX       0.053450
     48 H18          1.8000    -3.5490    -0.6140 h1         1 0GX       0.084200
     49 H19          2.8490    -1.6740     0.6280 hc         1 0GX       0.053700
     50 H20          4.0360    -2.4920    -0.3750 hc         1 0GX       0.053700
     51 H21          4.0120    -0.7570    -2.0490 hc         1 0GX       0.062700
     52 H22          3.0720     0.5710     1.3930 ha         1 0GX       0.137000
     53 H23          7.6100     1.7250    -0.3010 ha         1 0GX       0.131000
     54 H24          6.8760     2.5350     1.9340 ha         1 0GX       0.113000
     55 H25          5.0210     3.0050     3.4480 h1         1 0GX       0.034700
     56 H26          3.3920     2.3620     3.1310 h1         1 0GX       0.034700
     57 H27          5.6650     0.8790     4.2830 hn         1 0GX       0.399000
     58 H28          4.4270     1.4840     5.1260 hn         1 0GX       0.399000
@<TRIPOS>BOND
     1     1     2 1   
     2     1    31 1   
     3     1    32 1   
     4     1    33 1   
     5     2     3 1   
     6     2    34 1   
     7     2    35 1   
     8     3     4 1   
     9     3    36 1   
    10     3    37 1   
    11     4     5 1   
    12     5     6 1   
    13     5     7 2   
    14     6    11 1   
    15     7     8 1   
    16     7     9 1   
    17     9    10 1   
    18     9    11 2   
    19    10    38 1   
    20    10    39 1   
    21    10    40 1   
    22    11    12 1   
    23    12    13 2   
    24    12    14 1   
    25    14    15 1   
    26    14    19 1   
    27    15    16 1   
    28    15    17 1   
    29    15    41 1   
    30    16    21 1   
    31    16    42 1   
    32    16    43 1   
    33    17    18 1   
    34    17    44 1   
    35    17    45 1   
    36    18    19 1   
    37    18    46 1   
    38    18    47 1   
    39    19    20 1   
    40    19    48 1   
    41    20    21 1   
    42    20    49 1   
    43    20    50 1   
    44    21    22 1   
    45    21    51 1   
    46    22    23 ar  
    47    22    24 ar  
    48    23    28 ar  
    49    23    52 1   
    50    24    25 1   
    51    24    26 ar  
    52    26    27 ar  
    53    26    53 1   
    54    27    28 ar  
    55    27    54 1   
    56    28    29 1   
    57    29    30 1   
    58    29    55 1   
    59    29    56 1   
    60    30    57 1   
    61    30    58 1   
@<TRIPOS>SUBSTRUCTURE
     1 0GX         1 TEMP              0 ****  ****    0 ROOT
