@<TRIPOS>MOLECULE
0GY
   17    16     1     0     0
SMALL
No Charge or Current Charge


@<TRIPOS>ATOM
      1 C2          -2.2610    -1.7330    -0.0850 c          1 0GY       0.702200
      2 C3          -2.1200    -0.2470    -0.0010 ce         1 0GY      -0.338200
      3 C4          -1.0030     0.5460    -0.1820 cf         1 0GY      -0.098200
      4 C5           0.3100    -0.0210    -0.5280 cf         1 0GY      -0.193000
      5 C6           1.4620     0.0690     0.2060 ce         1 0GY      -0.059100
      6 O6B          3.7450    -0.4120     0.5420 o          1 0GY      -0.762000
      7 C6A          2.7950    -0.5510    -0.2190 c          1 0GY       0.685200
      8 O6A          2.8790    -1.1460    -1.2850 o          1 0GY      -0.762000
      9 O6           1.4840     0.7160     1.4130 oh         1 0GY      -0.552100
     10 C4A         -1.0940     2.0730    -0.0720 c          1 0GY       0.726200
     11 O4A         -0.1510     2.7640    -0.4400 o          1 0GY      -0.777500
     12 O4B         -2.1430     2.5800     0.3080 o          1 0GY      -0.777500
     13 O2          -3.3700    -2.1910     0.1280 o          1 0GY      -0.789500
     14 O1          -1.3050    -2.4350    -0.3670 o          1 0GY      -0.789500
     15 H1          -3.0550     0.2520     0.2400 ha         1 0GY       0.129000
     16 H2           0.3440    -0.6020    -1.4510 ha         1 0GY       0.209000
     17 H4           2.4190     0.6200     1.7120 ho         1 0GY       0.445000
@<TRIPOS>BOND
     1     1     2 1   
     2     1    13 1   
     3     1    14 1   
     4     2     3 2   
     5     2    15 1   
     6     3     4 1   
     7     3    10 1   
     8     4     5 2   
     9     4    16 1   
    10     5     7 1   
    11     5     9 1   
    12     6     7 1   
    13     7     8 1   
    14     9    17 1   
    15    10    11 1   
    16    10    12 1   
@<TRIPOS>SUBSTRUCTURE
     1 0GY         1 TEMP              0 ****  ****    0 ROOT
