@<TRIPOS>MOLECULE
0GY
   17    16     1     0     0
SMALL
bcc


@<TRIPOS>ATOM
      1 C2          -2.4730    -1.6920    -0.4930 c          1 0GY       0.912800
      2 C3          -2.1590    -0.2600    -0.1560 ce         1 0GY      -0.288200
      3 C4          -0.9690     0.3680    -0.0440 cf         1 0GY      -0.098200
      4 C5           0.3230    -0.2740    -0.2250 cf         1 0GY      -0.143000
      5 C6           1.5060     0.1930     0.2090 ce         1 0GY      -0.059100
      6 O6B          3.8020     0.0650     0.5030 o          1 0GY      -0.867300
      7 C6A          2.8260    -0.5400    -0.0050 c          1 0GY       0.895800
      8 O6A          2.8390    -1.6090    -0.6270 o          1 0GY      -0.867300
      9 O6           1.6670     1.3290     0.9020 oh         1 0GY      -0.513100
     10 C4A         -1.0140     1.8740     0.1980 c          1 0GY       0.936800
     11 O4A         -0.5720     2.5720    -0.7350 o          1 0GY      -0.882800
     12 O4B         -1.5260     2.2770     1.2590 o          1 0GY      -0.882800
     13 O2          -3.6920    -1.9840    -0.4660 o          1 0GY      -0.894800
     14 O1          -1.5490    -2.4870    -0.7750 o          1 0GY      -0.894800
     15 H1          -3.0440     0.3480     0.0180 ha         1 0GY       0.079000
     16 H2           0.3360    -1.2400    -0.7060 ha         1 0GY       0.159000
     17 H4           2.6360     1.3420     1.0600 ho         1 0GY       0.406000
@<TRIPOS>BOND
     1     1     2 1   
     2     1    13 1   
     3     1    14 1   
     4     2     3 2   
     5     2    15 1   
     6     3     4 1   
     7     3    10 1   
     8     4     5 2   
     9     4    16 1   
    10     5     7 1   
    11     5     9 1   
    12     6     7 1   
    13     7     8 1   
    14     9    17 1   
    15    10    11 1   
    16    10    12 1   
@<TRIPOS>SUBSTRUCTURE
     1 0GY         1 TEMP              0 ****  ****    0 ROOT
