@<TRIPOS>MOLECULE
0GZ
   15    15     1     0     0
SMALL
No Charge or Current Charge


@<TRIPOS>ATOM
      1 C8          -2.7000    -0.6470     0.0160 c          1 0GZ       0.711200
      2 C6           1.1790    -0.2350    -0.0270 cc         1 0GZ       0.022900
      3 C4          -1.3140    -0.0300     0.0070 cd         1 0GZ      -0.047200
      4 C2           0.1680     1.9830     0.0180 c          1 0GZ       0.642300
      5 C5          -0.0940    -0.8080    -0.0190 cd         1 0GZ      -0.286000
      6 C3          -1.1370     1.3410     0.0250 cc         1 0GZ      -0.390200
      7 O10         -2.7980    -1.8670    -0.0000 o          1 0GZ      -0.729000
      8 O9          -3.6820     0.0840     0.0390 o          1 0GZ      -0.729000
      9 O7           0.2970     3.1990     0.0330 o          1 0GZ      -0.620000
     10 O1           1.2420     1.1460    -0.0080 os         1 0GZ      -0.305200
     11 O13          3.5280    -0.4650    -0.0600 o          1 0GZ      -0.710000
     12 O12          2.3760    -2.2720    -0.0720 o          1 0GZ      -0.710000
     13 H1          -0.1750    -1.8920    -0.0340 ha         1 0GZ       0.226000
     14 H2          -1.9770     2.0240     0.0450 ha         1 0GZ       0.197000
     15 C11          2.4500    -1.0490    -0.0550 c          1 0GZ       0.728200
@<TRIPOS>BOND
     1     1     3 1   
     2     1     7 1   
     3     1     8 1   
     4     2     5 2   
     5     2    10 1   
     6     2    15 1   
     7     3     5 1   
     8     3     6 2   
     9     4     6 1   
    10     4     9 2   
    11     4    10 1   
    12     5    13 1   
    13     6    14 1   
    14    11    15 1   
    15    12    15 1   
@<TRIPOS>SUBSTRUCTURE
     1 0GZ         1 TEMP              0 ****  ****    0 ROOT
