@<TRIPOS>MOLECULE
0GZ
   15    15     1     0     0
SMALL
abcg2


@<TRIPOS>ATOM
      1 C8          -2.6780    -0.6440     0.0200 c          1 0GZ       0.711200
      2 C6           1.0990    -0.2520    -0.0310 cc         1 0GZ       0.022900
      3 C4          -1.2830    -0.0120     0.0180 cd         1 0GZ      -0.047200
      4 C2           0.1710     1.9390     0.0280 c          1 0GZ       0.642300
      5 C5          -0.1160    -0.8330    -0.0010 cd         1 0GZ      -0.286000
      6 C3          -1.1340     1.3360     0.0240 cc         1 0GZ      -0.390200
      7 O10         -2.7020    -1.8870    -0.0100 o          1 0GZ      -0.729000
      8 O9          -3.6400     0.1390    -0.0060 o          1 0GZ      -0.729000
      9 O7           0.4180     3.1260     0.0730 o          1 0GZ      -0.620000
     10 O1           1.2270     1.0850    -0.0410 os         1 0GZ      -0.305200
     11 O13          3.4460    -0.3160    -0.1100 o          1 0GZ      -0.710000
     12 O12          2.3200    -2.2480    -0.0300 o          1 0GZ      -0.710000
     13 H1          -0.1960    -1.9080     0.0010 ha         1 0GZ       0.226000
     14 H2          -1.9890     1.9980     0.0420 ha         1 0GZ       0.197000
     15 C11          2.4200    -1.0120    -0.0690 c          1 0GZ       0.728200
@<TRIPOS>BOND
     1     1     3 1   
     2     1     7 1   
     3     1     8 1   
     4     2     5 2   
     5     2    10 1   
     6     2    15 1   
     7     3     5 1   
     8     3     6 2   
     9     4     6 1   
    10     4     9 2   
    11     4    10 1   
    12     5    13 1   
    13     6    14 1   
    14    11    15 1   
    15    12    15 1   
@<TRIPOS>SUBSTRUCTURE
     1 0GZ         1 TEMP              0 ****  ****    0 ROOT
