@<TRIPOS>MOLECULE
0H3
   63    65     1     0     0
SMALL
abcg2


@<TRIPOS>ATOM
      1 N3           0.1320     1.8530    -1.6910 n          1 0H3      -0.305000
      2 C4           7.3000    -3.1000     1.0940 c3         1 0H3      -0.106600
      3 N2          -0.6360    -1.7970     0.1570 nb         1 0H3      -0.711000
      4 C7          -1.6510    -1.0120    -0.2350 cp         1 0H3       0.474500
      5 C6           0.5880    -1.3800    -0.0680 ca         1 0H3       0.416900
      6 C9           0.9070    -0.1760    -0.6930 ca         1 0H3      -0.345900
      7 C13         -0.9410     2.7760    -2.0390 c3         1 0H3       0.089000
      8 C20         -4.1230    -1.0870    -0.6480 ca         1 0H3       0.402900
      9 C21         -4.4860    -2.9340     1.3050 ca         1 0H3      -0.197000
     10 C8          -1.4500     0.2150    -0.8450 ca         1 0H3      -0.233000
     11 N5          -5.3580    -1.5150    -0.4080 nb         1 0H3      -0.764000
     12 C18         -3.0030    -1.5180     0.0470 cp         1 0H3      -0.254500
     13 C16          0.4660     5.3870     1.6640 c3         1 0H3      -0.080400
     14 C19         -3.2160    -2.4840     1.0420 ca         1 0H3      -0.003000
     15 O1           5.3730    -2.2160    -0.1150 os         1 0H3      -0.478000
     16 C1           5.7880    -3.0940     0.9210 c3         1 0H3       0.174300
     17 C2           5.5740    -0.8470     0.1400 c3         1 0H3       0.140600
     18 C3           5.2590    -4.4710     0.5710 c3         1 0H3      -0.106600
     19 C5           4.6760    -0.0560    -0.7860 c3         1 0H3       0.222800
     20 C10         -0.1460     0.6580    -1.0920 ca         1 0H3       0.172600
     21 C11          1.4550     2.2580    -1.9190 c          1 0H3       0.731400
     22 N4           2.4710     1.4510    -1.5230 nc         1 0H3      -0.770100
     23 C12          2.2550     0.3010    -0.9420 cd         1 0H3       0.788800
     24 O2           1.6750     3.3140    -2.4850 o          1 0H3      -0.520000
     25 C14         -1.4720     3.5290    -0.8330 c3         1 0H3       0.144600
     26 O3          -0.4090     4.1890    -0.2070 os         1 0H3      -0.442000
     27 C15         -0.7620     4.7710     1.0250 c3         1 0H3       0.161600
     28 C17          0.1390     5.9930     3.0220 c3         1 0H3      -0.089100
     29 C22         -5.5390    -2.4060     0.5450 ca         1 0H3       0.599300
     30 O4          -6.7650    -2.8410     0.8180 os         1 0H3      -0.456300
     31 C23         -7.8530    -2.3080     0.0740 c3         1 0H3       0.158900
     32 H8           7.5840    -3.8110     1.8710 hc         1 0H3       0.043867
     33 H9           7.7970    -3.3970     0.1680 hc         1 0H3       0.043867
     34 H7           7.6860    -2.1240     1.3920 hc         1 0H3       0.043867
     35 H12          1.3710    -2.0490     0.2720 h4         1 0H3       0.015100
     36 H15         -0.5480     3.4740    -2.7720 h1         1 0H3       0.076700
     37 H16         -1.7520     2.2360    -2.5270 h1         1 0H3       0.076700
     38 H27         -4.0330    -0.3720    -1.4580 h4         1 0H3       0.018100
     39 H28         -4.6750    -3.6690     2.0760 ha         1 0H3       0.141000
     40 H14         -2.3020     0.8230    -1.1030 ha         1 0H3       0.131000
     41 H22          1.2360     4.6190     1.7750 hc         1 0H3       0.056200
     42 H21          0.8760     6.1550     1.0040 hc         1 0H3       0.056200
     43 H26         -2.3800    -2.8650     1.6120 ha         1 0H3       0.142000
     44 H1           5.3290    -2.7670     1.8660 h1         1 0H3       0.028700
     45 H3           5.3320    -0.6050     1.1840 h1         1 0H3       0.036700
     46 H2           6.6120    -0.5410    -0.0350 h1         1 0H3       0.036700
     47 H5           5.4930    -5.1760     1.3690 hc         1 0H3       0.043867
     48 H6           4.1760    -4.4600     0.4420 hc         1 0H3       0.043867
     49 H4           5.7120    -4.8440    -0.3490 hc         1 0H3       0.043867
     50 H11          4.8020     1.0060    -0.5800 h1         1 0H3       0.073200
     51 H10          4.9610    -0.2200    -1.8300 h1         1 0H3       0.073200
     52 H13          3.1490    -1.3770    -0.2460 hn         1 0H3       0.506000
     53 H18         -2.2450     4.2290    -1.1810 h1         1 0H3       0.024700
     54 H17         -1.9680     2.8430    -0.1320 h1         1 0H3       0.024700
     55 H19         -1.1900     4.0120     1.6970 h1         1 0H3       0.017700
     56 H20         -1.5370     5.5390     0.8850 h1         1 0H3       0.017700
     57 H25          1.0250     6.4240     3.4860 hc         1 0H3       0.032700
     58 H24         -0.6060     6.7850     2.9340 hc         1 0H3       0.032700
     59 H23         -0.2590     5.2410     3.7060 hc         1 0H3       0.032700
     60 H31         -7.9440    -1.2300     0.2080 h1         1 0H3       0.048367
     61 H29         -7.7590    -2.5220    -0.9910 h1         1 0H3       0.048367
     62 H30         -8.7440    -2.7950     0.4620 h1         1 0H3       0.048367
     63 N1           3.2970    -0.4330    -0.5660 nu         1 0H3      -0.871400
@<TRIPOS>BOND
     1     1     7 1   
     2     1    20 1   
     3     1    21 1   
     4     2    16 1   
     5     2    32 1   
     6     2    33 1   
     7     2    34 1   
     8     3     4 ar  
     9     3     5 ar  
    10     4    10 ar  
    11     4    12 1   
    12     5     6 ar  
    13     5    35 1   
    14     6    20 ar  
    15     6    23 1   
    16     7    25 1   
    17     7    36 1   
    18     7    37 1   
    19     8    11 ar  
    20     8    12 ar  
    21     8    38 1   
    22     9    14 ar  
    23     9    29 ar  
    24     9    39 1   
    25    10    20 ar  
    26    10    40 1   
    27    11    29 ar  
    28    12    14 ar  
    29    13    27 1   
    30    13    28 1   
    31    13    41 1   
    32    13    42 1   
    33    14    43 1   
    34    15    16 1   
    35    15    17 1   
    36    16    18 1   
    37    16    44 1   
    38    17    19 1   
    39    17    45 1   
    40    17    46 1   
    41    18    47 1   
    42    18    48 1   
    43    18    49 1   
    44    19    50 1   
    45    19    51 1   
    46    19    63 1   
    47    21    22 1   
    48    21    24 2   
    49    22    23 2   
    50    23    63 1   
    51    25    26 1   
    52    25    53 1   
    53    25    54 1   
    54    26    27 1   
    55    27    55 1   
    56    27    56 1   
    57    28    57 1   
    58    28    58 1   
    59    28    59 1   
    60    29    30 1   
    61    30    31 1   
    62    31    60 1   
    63    31    61 1   
    64    31    62 1   
    65    52    63 1   
@<TRIPOS>SUBSTRUCTURE
     1 0H3         1 TEMP              0 ****  ****    0 ROOT
