@<TRIPOS>MOLECULE
0H3
   63    65     1     0     0
SMALL
No Charge or Current Charge


@<TRIPOS>ATOM
      1 N3           0.2070     1.9090    -1.5340 n          1 0H3      -0.305000
      2 C4           7.4120    -3.5280     0.2460 c3         1 0H3      -0.106600
      3 N2          -0.6440    -1.7190     0.4660 nb         1 0H3      -0.711000
      4 C7          -1.6690    -1.0060    -0.0380 cp         1 0H3       0.474500
      5 C6           0.6140    -1.2730     0.2960 ca         1 0H3       0.416900
      6 C9           0.9110    -0.0760    -0.3600 ca         1 0H3      -0.345900
      7 C13         -0.8590     2.8660    -1.9520 c3         1 0H3       0.089000
      8 C20         -4.1120    -1.2200    -0.6810 ca         1 0H3       0.402900
      9 C21         -4.6090    -3.0430     1.2960 ca         1 0H3      -0.197000
     10 C8          -1.4440     0.2210    -0.7000 ca         1 0H3      -0.233000
     11 N5          -5.3650    -1.7090    -0.5610 nb         1 0H3      -0.764000
     12 C18         -3.0330    -1.5880     0.1560 cp         1 0H3      -0.254500
     13 C16          0.3290     5.8380     1.6340 c3         1 0H3      -0.080400
     14 C19         -3.3080    -2.5380     1.1720 ca         1 0H3      -0.003000
     15 O1           5.2740    -2.3600     0.1000 os         1 0H3      -0.478000
     16 C1           5.9870    -3.3790     0.8270 c3         1 0H3       0.174300
     17 C2           5.7390    -0.9990     0.2770 c3         1 0H3       0.140600
     18 C3           5.1630    -4.6720     0.6890 c3         1 0H3      -0.106600
     19 C5           4.7840    -0.0450    -0.4830 c3         1 0H3       0.222800
     20 C10         -0.1330     0.7120    -0.8320 ca         1 0H3       0.172600
     21 C11          1.5580     2.2670    -1.7240 c          1 0H3       0.731400
     22 N4           2.5380     1.4550    -1.2200 nc         1 0H3      -0.770100
     23 C12          2.2770     0.3560    -0.5660 cd         1 0H3       0.788800
     24 O2           1.8860     3.2770    -2.3270 o          1 0H3      -0.520000
     25 C14         -1.4940     3.6460    -0.7770 c3         1 0H3       0.144600
     26 O3          -0.4570     4.3820    -0.1050 os         1 0H3      -0.442000
     27 C15         -0.9010     5.1320     1.0340 c3         1 0H3       0.161600
     28 C17         -0.0090     6.6830     2.8780 c3         1 0H3      -0.089100
     29 C22         -5.6060    -2.6060     0.4160 ca         1 0H3       0.599300
     30 O4          -6.8690    -3.1260     0.5730 os         1 0H3      -0.456300
     31 C23         -7.9540    -2.7300    -0.2900 c3         1 0H3       0.158900
     32 H8           7.9070    -4.4070     0.6740 hc         1 0H3       0.043867
     33 H9           7.3780    -3.6510    -0.8430 hc         1 0H3       0.043867
     34 H7           8.0310    -2.6550     0.4830 hc         1 0H3       0.043867
     35 H12          1.3990    -1.9110     0.7000 h4         1 0H3       0.015100
     36 H15         -0.4640     3.5930    -2.6710 h1         1 0H3       0.076700
     37 H16         -1.6440     2.3190    -2.4870 h1         1 0H3       0.076700
     38 H27         -3.9710    -0.5150    -1.4990 h4         1 0H3       0.018100
     39 H28         -4.8520    -3.7680     2.0660 ha         1 0H3       0.141000
     40 H14         -2.2870     0.7810    -1.0800 ha         1 0H3       0.131000
     41 H22          1.0800     5.0860     1.9040 hc         1 0H3       0.056200
     42 H21          0.7800     6.4860     0.8720 hc         1 0H3       0.056200
     43 H26         -2.5310    -2.8740     1.8580 ha         1 0H3       0.142000
     44 H1           6.0540    -3.1210     1.8930 h1         1 0H3       0.028700
     45 H3           5.7400    -0.7300     1.3410 h1         1 0H3       0.036700
     46 H2           6.7560    -0.8670    -0.1140 h1         1 0H3       0.036700
     47 H5           5.6410    -5.4930     1.2350 hc         1 0H3       0.043867
     48 H6           4.1560    -4.5310     1.1000 hc         1 0H3       0.043867
     49 H4           5.0700    -4.9650    -0.3640 hc         1 0H3       0.043867
     50 H11          5.0540     0.9920    -0.2360 h1         1 0H3       0.073200
     51 H10          4.9370    -0.1790    -1.5630 h1         1 0H3       0.073200
     52 H13          3.1790    -1.2480     0.2120 hn         1 0H3       0.506000
     53 H18         -2.2610     4.3270    -1.1680 h1         1 0H3       0.024700
     54 H17         -1.9770     2.9440    -0.0860 h1         1 0H3       0.024700
     55 H19         -1.3470     4.4670     1.7860 h1         1 0H3       0.017700
     56 H20         -1.6490     5.8790     0.7390 h1         1 0H3       0.017700
     57 H25          0.8950     7.1660     3.2690 hc         1 0H3       0.032700
     58 H24         -0.7360     7.4660     2.6290 hc         1 0H3       0.032700
     59 H23         -0.4330     6.0550     3.6700 hc         1 0H3       0.032700
     60 H31         -8.1390    -1.6500    -0.2170 h1         1 0H3       0.048367
     61 H29         -7.7320    -2.9750    -1.3370 h1         1 0H3       0.048367
     62 H30         -8.8770    -3.2510    -0.0080 h1         1 0H3       0.048367
     63 N1           3.3720    -0.3130    -0.1320 nu         1 0H3      -0.871400
@<TRIPOS>BOND
     1     1     7 1   
     2     1    20 1   
     3     1    21 1   
     4     2    16 1   
     5     2    32 1   
     6     2    33 1   
     7     2    34 1   
     8     3     4 ar  
     9     3     5 ar  
    10     4    10 ar  
    11     4    12 1   
    12     5     6 ar  
    13     5    35 1   
    14     6    20 ar  
    15     6    23 1   
    16     7    25 1   
    17     7    36 1   
    18     7    37 1   
    19     8    11 ar  
    20     8    12 ar  
    21     8    38 1   
    22     9    14 ar  
    23     9    29 ar  
    24     9    39 1   
    25    10    20 ar  
    26    10    40 1   
    27    11    29 ar  
    28    12    14 ar  
    29    13    27 1   
    30    13    28 1   
    31    13    41 1   
    32    13    42 1   
    33    14    43 1   
    34    15    16 1   
    35    15    17 1   
    36    16    18 1   
    37    16    44 1   
    38    17    19 1   
    39    17    45 1   
    40    17    46 1   
    41    18    47 1   
    42    18    48 1   
    43    18    49 1   
    44    19    50 1   
    45    19    51 1   
    46    19    63 1   
    47    21    22 1   
    48    21    24 2   
    49    22    23 2   
    50    23    63 1   
    51    25    26 1   
    52    25    53 1   
    53    25    54 1   
    54    26    27 1   
    55    27    55 1   
    56    27    56 1   
    57    28    57 1   
    58    28    58 1   
    59    28    59 1   
    60    29    30 1   
    61    30    31 1   
    62    31    60 1   
    63    31    61 1   
    64    31    62 1   
    65    52    63 1   
@<TRIPOS>SUBSTRUCTURE
     1 0H3         1 TEMP              0 ****  ****    0 ROOT
