@<TRIPOS>MOLECULE
0H4
   50    52     1     0     0
SMALL
No Charge or Current Charge


@<TRIPOS>ATOM
      1 N3          -4.1030     1.2710     0.2950 nb         1 0H4      -0.668000
      2 C4           2.0020     0.0920    -1.6590 cc         1 0H4      -0.013400
      3 N2          -2.6990    -0.4440    -0.4300 ns         1 0H4      -0.317900
      4 C7           2.4230     1.6450     0.5740 cc         1 0H4      -0.252200
      5 C6           3.4240     1.6370    -0.3850 cd         1 0H4      -0.094200
      6 C9           1.1680     0.8870     0.4960 c          1 0H4       0.554200
      7 C13          2.0930    -4.9810     0.3400 c5         1 0H4      -0.078900
      8 C20         -7.8900     1.5850     0.6170 c3         1 0H4      -0.036800
      9 C8           4.7060     2.4480    -0.2480 c3         1 0H4       0.351200
     10 C18         -6.5190     1.0020     0.3040 ca         1 0H4      -0.158300
     11 C16         -5.1100    -0.7840    -0.4890 ca         1 0H4      -0.211000
     12 C19         -5.3440     1.7430     0.5500 ca         1 0H4       0.372900
     13 N1           1.0160     0.1060    -0.6710 n          1 0H4      -0.250000
     14 C1          -0.2510    -0.6660    -0.8620 c3         1 0H4       0.015700
     15 C2          -1.5400     0.2160    -0.7930 c          1 0H4       0.619100
     16 O1          -1.5220     1.4060    -1.0940 o          1 0H4      -0.522100
     17 C3          -4.0010     0.0390    -0.2390 ca         1 0H4       0.482900
     18 C5           3.1710     0.8180    -1.5470 cd         1 0H4      -0.279000
     19 O2           0.3350     0.9220     1.3920 o          1 0H4      -0.541000
     20 C10         -0.3040    -1.9970    -0.0400 c3         1 0H4      -0.084400
     21 C11          0.9360    -2.9310    -0.1360 c5         1 0H4      -0.063700
     22 C12          0.6810    -4.3470     0.4390 c5         1 0H4      -0.078900
     23 C14          3.0650    -3.8050     0.6690 c5         1 0H4      -0.078900
     24 C15          2.1590    -2.5400     0.7450 c5         1 0H4      -0.078900
     25 C17         -6.3980    -0.2950    -0.2230 ca         1 0H4      -0.048000
     26 F1           4.5900     3.6570    -0.8420 f          1 0H4      -0.108333
     27 F2           5.0370     2.6740     1.0450 f          1 0H4      -0.108333
     28 F3           5.7660     1.8280    -0.8160 f          1 0H4      -0.108333
     29 H3           1.7540    -0.5440    -2.5040 h4         1 0H4       0.204000
     30 H2          -2.6050    -1.4380    -0.2800 hn         1 0H4       0.156000
     31 H5           2.5150     2.2350     1.4780 ha         1 0H4       0.227000
     32 H12          2.2130    -5.8250     1.0290 hc         1 0H4       0.045450
     33 H11          2.2780    -5.3650    -0.6700 hc         1 0H4       0.045450
     34 H22         -8.2520     1.2330     1.5900 hc         1 0H4       0.043700
     35 H21         -7.8640     2.6810     0.6470 hc         1 0H4       0.043700
     36 H20         -8.6280     1.2940    -0.1400 hc         1 0H4       0.043700
     37 H17         -4.9700    -1.7850    -0.8870 ha         1 0H4       0.118000
     38 H19         -5.3980     2.7470     0.9710 h4         1 0H4       0.023100
     39 H1          -0.2580    -0.9980    -1.9070 h1         1 0H4       0.071700
     40 H4           3.9040     0.7660    -2.3490 ha         1 0H4       0.215000
     41 H6          -0.4980    -1.7580     1.0130 hc         1 0H4       0.060200
     42 H7          -1.1720    -2.5730    -0.3830 hc         1 0H4       0.060200
     43 H8           1.2140    -2.9920    -1.1960 hc         1 0H4       0.041700
     44 H9          -0.0630    -4.9080    -0.1390 hc         1 0H4       0.045200
     45 H10          0.3260    -4.3100     1.4770 hc         1 0H4       0.045200
     46 H14          3.6010    -3.9660     1.6110 hc         1 0H4       0.045450
     47 H13          3.8250    -3.7010    -0.1140 hc         1 0H4       0.045450
     48 H16          2.6910    -1.6540     0.3860 hc         1 0H4       0.045200
     49 H15          1.8570    -2.3320     1.7780 hc         1 0H4       0.045200
     50 H18         -7.2760    -0.9080    -0.4160 ha         1 0H4       0.117000
@<TRIPOS>BOND
     1     1    12 ar  
     2     1    17 ar  
     3     2    13 1   
     4     2    18 2   
     5     2    29 1   
     6     3    15 1   
     7     3    17 1   
     8     3    30 1   
     9     4     5 2   
    10     4     6 1   
    11     4    31 1   
    12     5     9 1   
    13     5    18 1   
    14     6    13 1   
    15     6    19 2   
    16     7    22 1   
    17     7    23 1   
    18     7    32 1   
    19     7    33 1   
    20     8    10 1   
    21     8    34 1   
    22     8    35 1   
    23     8    36 1   
    24     9    26 1   
    25     9    27 1   
    26     9    28 1   
    27    10    12 ar  
    28    10    25 ar  
    29    11    17 ar  
    30    11    25 ar  
    31    11    37 1   
    32    12    38 1   
    33    13    14 1   
    34    14    15 1   
    35    14    20 1   
    36    14    39 1   
    37    15    16 2   
    38    18    40 1   
    39    20    21 1   
    40    20    41 1   
    41    20    42 1   
    42    21    22 1   
    43    21    24 1   
    44    21    43 1   
    45    22    44 1   
    46    22    45 1   
    47    23    24 1   
    48    23    46 1   
    49    23    47 1   
    50    24    48 1   
    51    24    49 1   
    52    25    50 1   
@<TRIPOS>SUBSTRUCTURE
     1 0H4         1 TEMP              0 ****  ****    0 ROOT
