@<TRIPOS>MOLECULE
0H4
   50    52     1     0     0
SMALL
abcg2


@<TRIPOS>ATOM
      1 N3          -4.0700     1.4010    -0.1200 nb         1 0H4      -0.668000
      2 C4           1.8460     0.2840    -1.7040 cc         1 0H4      -0.013400
      3 N2          -2.5830    -0.4120    -0.2780 ns         1 0H4      -0.317900
      4 C7           2.2990     1.3710     0.7700 cc         1 0H4      -0.252200
      5 C6           3.2160     1.5210    -0.2170 cd         1 0H4      -0.094200
      6 C9           1.0740     0.6470     0.5460 c          1 0H4       0.554200
      7 C13          1.9110    -4.7890     0.8180 c5         1 0H4      -0.078900
      8 C20         -7.7690     1.6190     0.5800 c3         1 0H4      -0.036800
      9 C8           4.4950     2.2720     0.0170 c3         1 0H4       0.351200
     10 C18         -6.4040     1.0460     0.3530 ca         1 0H4      -0.158300
     11 C16         -4.8910    -0.8140     0.1870 ca         1 0H4      -0.211000
     12 C19         -5.3070     1.8490     0.0840 ca         1 0H4       0.372900
     13 N1           0.9310     0.1050    -0.7230 n          1 0H4      -0.250000
     14 C1          -0.2600    -0.6950    -0.9830 c3         1 0H4       0.015700
     15 C2          -1.4840     0.2130    -0.7690 c          1 0H4       0.619100
     16 O1          -1.4330     1.3740    -1.1080 o          1 0H4      -0.522100
     17 C3          -3.8650     0.1000    -0.0750 ca         1 0H4       0.482900
     18 C5           2.9950     0.9720    -1.5030 cd         1 0H4      -0.279000
     19 O2           0.1960     0.4910     1.3870 o          1 0H4      -0.541000
     20 C10         -0.2470    -2.0540    -0.2810 c3         1 0H4      -0.084400
     21 C11          1.0270    -2.8760    -0.4890 c5         1 0H4      -0.063700
     22 C12          0.7900    -4.3730    -0.1460 c5         1 0H4      -0.078900
     23 C14          3.0120    -3.7610     0.5790 c5         1 0H4      -0.078900
     24 C15          2.2350    -2.4650     0.3750 c5         1 0H4      -0.078900
     25 C17         -6.1610    -0.3280     0.4040 ca         1 0H4      -0.048000
     26 F1           4.6230     3.2790    -0.8550 f          1 0H4      -0.108333
     27 F2           4.5770     2.7910     1.2410 f          1 0H4      -0.108333
     28 F3           5.5540     1.4720    -0.1500 f          1 0H4      -0.108333
     29 H3           1.6120    -0.1600    -2.6600 h4         1 0H4       0.204000
     30 H2          -2.4910    -1.3930    -0.0640 hn         1 0H4       0.156000
     31 H5           2.4360     1.7820     1.7600 ha         1 0H4       0.227000
     32 H12          1.5640    -4.7160     1.8510 hc         1 0H4       0.045450
     33 H11          2.2400    -5.8170     0.6610 hc         1 0H4       0.045450
     34 H22         -8.1200     1.4160     1.5930 hc         1 0H4       0.043700
     35 H21         -7.7750     2.6990     0.4380 hc         1 0H4       0.043700
     36 H20         -8.4980     1.1890    -0.1070 hc         1 0H4       0.043700
     37 H17         -4.6930    -1.8780     0.2140 ha         1 0H4       0.118000
     38 H19         -5.4290     2.9260     0.0340 h4         1 0H4       0.023100
     39 H1          -0.2550    -0.8960    -2.0590 h1         1 0H4       0.071700
     40 H4           3.6970     1.0840    -2.3150 ha         1 0H4       0.215000
     41 H6          -0.4470    -1.9520     0.7880 hc         1 0H4       0.060200
     42 H7          -1.0730    -2.6270    -0.7130 hc         1 0H4       0.060200
     43 H8           1.3140    -2.8050    -1.5440 hc         1 0H4       0.041700
     44 H9           0.8180    -4.9730    -1.0580 hc         1 0H4       0.045200
     45 H10         -0.1960    -4.5320     0.2950 hc         1 0H4       0.045200
     46 H14          3.7330    -3.7030     1.3950 hc         1 0H4       0.045450
     47 H13          3.5690    -4.0080    -0.3300 hc         1 0H4       0.045450
     48 H16          2.8490    -1.6870    -0.0820 hc         1 0H4       0.045200
     49 H15          1.8910    -2.0860     1.3430 hc         1 0H4       0.045200
     50 H18         -6.9710    -1.0190     0.6060 ha         1 0H4       0.117000
@<TRIPOS>BOND
     1     1    12 ar  
     2     1    17 ar  
     3     2    13 1   
     4     2    18 2   
     5     2    29 1   
     6     3    15 1   
     7     3    17 1   
     8     3    30 1   
     9     4     5 2   
    10     4     6 1   
    11     4    31 1   
    12     5     9 1   
    13     5    18 1   
    14     6    13 1   
    15     6    19 2   
    16     7    22 1   
    17     7    23 1   
    18     7    32 1   
    19     7    33 1   
    20     8    10 1   
    21     8    34 1   
    22     8    35 1   
    23     8    36 1   
    24     9    26 1   
    25     9    27 1   
    26     9    28 1   
    27    10    12 ar  
    28    10    25 ar  
    29    11    17 ar  
    30    11    25 ar  
    31    11    37 1   
    32    12    38 1   
    33    13    14 1   
    34    14    15 1   
    35    14    20 1   
    36    14    39 1   
    37    15    16 2   
    38    18    40 1   
    39    20    21 1   
    40    20    41 1   
    41    20    42 1   
    42    21    22 1   
    43    21    24 1   
    44    21    43 1   
    45    22    44 1   
    46    22    45 1   
    47    23    24 1   
    48    23    46 1   
    49    23    47 1   
    50    24    48 1   
    51    24    49 1   
    52    25    50 1   
@<TRIPOS>SUBSTRUCTURE
     1 0H4         1 TEMP              0 ****  ****    0 ROOT
