@<TRIPOS>MOLECULE
0H5
   32    34     1     0     0
SMALL
No Charge or Current Charge


@<TRIPOS>ATOM
      1 C4          -2.0840     1.6820     0.1510 ca         1 0H5       0.014000
      2 C6          -1.7000    -0.7350     0.0410 ca         1 0H5      -0.122000
      3 C13         -4.9110    -2.6100    -0.2420 c3         1 0H5       0.150900
      4 C8          -0.2810     3.1050     0.3270 ca         1 0H5       0.156900
      5 C18          3.3010     0.8070    -0.4340 cc         1 0H5      -0.212000
      6 C19          5.5150    -1.9950     0.1400 c3         1 0H5       0.081900
      7 C1          -3.0820    -0.9610    -0.0470 ca         1 0H5       0.124100
      8 C2          -3.9700     0.1350    -0.0360 ca         1 0H5      -0.152000
      9 C3          -3.4670     1.4440     0.0620 ca         1 0H5      -0.061000
     10 C5          -1.1890     0.5820     0.1440 ca         1 0H5      -0.129000
     11 N7          -1.6160     2.9440     0.2420 nb         1 0H5      -0.198000
     12 N9           0.6460     2.1300     0.3310 nb         1 0H5      -0.269000
     13 C10          0.1990     0.8650     0.2340 ca         1 0H5       0.405900
     14 O11         -3.5160    -2.2680    -0.1450 os         1 0H5      -0.350100
     15 N12          1.1570    -0.1490     0.2690 nu         1 0H5      -0.882800
     16 C14          2.4990    -0.2160     0.0760 cc         1 0H5       0.499900
     17 N15          3.1250    -1.3280     0.3400 nd         1 0H5      -0.585800
     18 N16          4.4350    -1.0070    -0.0040 na         1 0H5       0.123800
     19 C17          4.5660     0.3030    -0.4860 cd         1 0H5      -0.156000
     20 H1          -1.0390    -1.5960     0.0220 ha         1 0H5       0.125000
     21 H2          -5.3620    -2.1610    -1.1370 h1         1 0H5       0.042700
     22 H3          -5.0320    -3.6980    -0.3100 h1         1 0H5       0.042700
     23 H4          -5.4610    -2.2610     0.6420 h1         1 0H5       0.042700
     24 H5           0.0840     4.1280     0.4020 h5         1 0H5       0.045100
     25 H6           2.9750     1.7930    -0.7390 ha         1 0H5       0.173000
     26 H7           5.3170    -2.8520    -0.5150 h1         1 0H5       0.054700
     27 H8           6.4730    -1.5390    -0.1390 h1         1 0H5       0.054700
     28 H9           5.5660    -2.3340     1.1810 h1         1 0H5       0.054700
     29 H10         -5.0440    -0.0060    -0.1030 ha         1 0H5       0.121000
     30 H11         -4.1600     2.2830     0.0680 ha         1 0H5       0.135000
     31 H12          0.7840    -1.0660     0.4850 hn         1 0H5       0.514000
     32 H13          5.5050     0.7350    -0.8140 h4         1 0H5       0.151000
@<TRIPOS>BOND
     1     1     9 ar  
     2     1    10 ar  
     3     1    11 ar  
     4     2     7 ar  
     5     2    10 ar  
     6     2    20 1   
     7     3    14 1   
     8     3    21 1   
     9     3    22 1   
    10     3    23 1   
    11     4    11 ar  
    12     4    12 ar  
    13     4    24 1   
    14     5    16 1   
    15     5    19 2   
    16     5    25 1   
    17     6    18 1   
    18     6    26 1   
    19     6    27 1   
    20     6    28 1   
    21     7     8 ar  
    22     7    14 1   
    23     8     9 ar  
    24     8    29 1   
    25     9    30 1   
    26    10    13 ar  
    27    12    13 ar  
    28    13    15 1   
    29    15    16 1   
    30    15    31 1   
    31    16    17 2   
    32    17    18 1   
    33    18    19 1   
    34    19    32 1   
@<TRIPOS>SUBSTRUCTURE
     1 0H5         1 TEMP              0 ****  ****    0 ROOT
