@<TRIPOS>MOLECULE
0H5
   32    34     1     0     0
SMALL
abcg2


@<TRIPOS>ATOM
      1 C4          -2.0570     1.5990     0.0370 ca         1 0H5       0.014000
      2 C6          -1.7620    -0.8220     0.0050 ca         1 0H5      -0.122000
      3 C13         -4.9900    -2.5080    -0.0460 c3         1 0H5       0.150900
      4 C8          -0.2660     2.9930     0.0520 ca         1 0H5       0.156900
      5 C18          3.3540     0.9440    -0.0280 cc         1 0H5      -0.212000
      6 C19          5.5250    -1.9460    -0.0210 c3         1 0H5       0.081900
      7 C1          -3.1340    -0.9950    -0.0030 ca         1 0H5       0.124100
      8 C2          -3.9830     0.1310     0.0130 ca         1 0H5      -0.152000
      9 C3          -3.4480     1.3950     0.0330 ca         1 0H5      -0.061000
     10 C5          -1.2070     0.4650     0.0250 ca         1 0H5      -0.129000
     11 N7          -1.5660     2.8780     0.0510 nb         1 0H5      -0.198000
     12 N9           0.6470     2.0020     0.0420 nb         1 0H5      -0.269000
     13 C10          0.2070     0.7580     0.0300 ca         1 0H5       0.405900
     14 O11         -3.5830    -2.2750    -0.0270 os         1 0H5      -0.350100
     15 N12          1.1070    -0.2580     0.0190 nu         1 0H5      -0.882800
     16 C14          2.4960    -0.1730     0.0100 cc         1 0H5       0.499900
     17 N15          3.1810    -1.3200     0.0330 nd         1 0H5      -0.585800
     18 N16          4.4790    -0.9490     0.0090 na         1 0H5       0.123800
     19 C17          4.6170     0.3890    -0.0300 cd         1 0H5      -0.156000
     20 H1          -1.1510    -1.7130    -0.0090 ha         1 0H5       0.125000
     21 H2          -5.4510    -2.0730    -0.9330 h1         1 0H5       0.042700
     22 H3          -5.1160    -3.5850    -0.0690 h1         1 0H5       0.042700
     23 H4          -5.4690    -2.1080     0.8480 h1         1 0H5       0.042700
     24 H5           0.1430     3.9970     0.0600 h5         1 0H5       0.045100
     25 H6           3.0850     1.9790    -0.0450 ha         1 0H5       0.173000
     26 H7           5.5040    -2.4960    -0.9600 h1         1 0H5       0.054700
     27 H8           6.4800    -1.4420     0.0830 h1         1 0H5       0.054700
     28 H9           5.3970    -2.6430     0.8040 h1         1 0H5       0.054700
     29 H10         -5.0540     0.0100     0.0090 ha         1 0H5       0.121000
     30 H11         -4.0930     2.2620     0.0430 ha         1 0H5       0.135000
     31 H12          0.7540    -1.1990     0.0290 hn         1 0H5       0.514000
     32 H13          5.5870     0.8530    -0.0570 h4         1 0H5       0.151000
@<TRIPOS>BOND
     1     1     9 ar  
     2     1    10 ar  
     3     1    11 ar  
     4     2     7 ar  
     5     2    10 ar  
     6     2    20 1   
     7     3    14 1   
     8     3    21 1   
     9     3    22 1   
    10     3    23 1   
    11     4    11 ar  
    12     4    12 ar  
    13     4    24 1   
    14     5    16 1   
    15     5    19 2   
    16     5    25 1   
    17     6    18 1   
    18     6    26 1   
    19     6    27 1   
    20     6    28 1   
    21     7     8 ar  
    22     7    14 1   
    23     8     9 ar  
    24     8    29 1   
    25     9    30 1   
    26    10    13 ar  
    27    12    13 ar  
    28    13    15 1   
    29    15    16 1   
    30    15    31 1   
    31    16    17 2   
    32    17    18 1   
    33    18    19 1   
    34    19    32 1   
@<TRIPOS>SUBSTRUCTURE
     1 0H5         1 TEMP              0 ****  ****    0 ROOT
