@<TRIPOS>MOLECULE
0H6
   46    48     1     0     0
SMALL
bcc


@<TRIPOS>ATOM
      1 C4           0.9520     1.9180    -0.8550 c3         1 0H6      -0.078400
      2 C7           3.4130     4.8160    -0.7610 c5         1 0H6      -0.077900
      3 C6           2.3760     3.9290    -1.4780 c5         1 0H6      -0.077400
      4 C9           2.4600     3.1970     0.7970 c5         1 0H6      -0.077400
      5 C13         -3.4730    -0.7940    -0.5770 ca         1 0H6      -0.274300
      6 C21          2.5100    -0.8670     0.9410 cc         1 0H6      -0.189600
      7 C8           3.6140     4.1870     0.6350 c5         1 0H6      -0.077900
      8 C16         -5.0020     0.5500     1.2220 ca         1 0H6       0.438200
      9 N1           1.8690    -0.2440    -0.0860 na         1 0H6      -0.165900
     10 C2           0.7760     0.6940     0.0500 c3         1 0H6      -0.037000
     11 C3          -0.5400    -0.0140    -0.2780 c          1 0H6       0.658100
     12 C5           2.2560     2.6660    -0.6210 c5         1 0H6      -0.074700
     13 N10         -1.5940     0.4640     0.4200 ns         1 0H6      -0.539400
     14 O11         -0.5930    -0.8850    -1.1210 o          1 0H6      -0.569100
     15 C12         -2.9460     0.1260     0.3290 ca         1 0H6       0.482200
     16 C14         -4.8390    -1.0120    -0.5400 ca         1 0H6      -0.062000
     17 C15         -5.6450    -0.3390     0.3700 ca         1 0H6      -0.251900
     18 N17         -3.6960     0.7800     1.2060 nb         1 0H6      -0.763000
     19 O19         -7.6160    -1.3760    -0.3870 o          1 0H6      -0.818300
     20 O20         -7.7700     0.0880     1.2910 o          1 0H6      -0.818300
     21 C22          3.4240    -1.6830     0.3430 cd         1 0H6       0.175600
     22 N23          3.3560    -1.5780    -1.0140 nd         1 0H6      -0.641000
     23 C24          2.4090    -0.7110    -1.2380 cc         1 0H6       0.428400
     24 F26          4.2810    -3.8470     0.5920 f          1 0H6      -0.236967
     25 F27          5.6710    -2.2200     0.7230 f          1 0H6      -0.236967
     26 F28          4.2660    -2.5590     2.3250 f          1 0H6      -0.236967
     27 H1           0.8720     1.6170    -1.9030 hc         1 0H6       0.065700
     28 H2           0.1110     2.5920    -0.6690 hc         1 0H6       0.065700
     29 H3           4.3550     4.8540    -1.3100 hc         1 0H6       0.040950
     30 H4           3.0570     5.8440    -0.6850 hc         1 0H6       0.040950
     31 H5           1.4060     4.4340    -1.5130 hc         1 0H6       0.043200
     32 H6           2.6520     3.7030    -2.5090 hc         1 0H6       0.043200
     33 H7           2.6770     2.4180     1.5310 hc         1 0H6       0.043200
     34 H8           1.5530     3.7140     1.1290 hc         1 0H6       0.043200
     35 H9          -2.8490    -1.3170    -1.2820 ha         1 0H6       0.150000
     36 H10          2.2670    -0.6740     1.9730 h4         1 0H6       0.187000
     37 H11          4.5620     3.6460     0.6700 hc         1 0H6       0.040950
     38 H12          3.6420     4.9310     1.4320 hc         1 0H6       0.040950
     39 H13         -5.5740     1.1050     1.9560 h4         1 0H6       0.036100
     40 H14          0.7760     1.0220     1.0910 h1         1 0H6       0.077700
     41 H15          3.0990     2.0060    -0.8580 hc         1 0H6       0.059700
     42 H16         -1.4130     1.1580     1.1330 hn         1 0H6       0.321500
     43 H17         -5.2830    -1.7180    -1.2300 ha         1 0H6       0.156000
     44 H19          2.0850    -0.3800    -2.2120 h5         1 0H6       0.069100
     45 C18         -7.1470    -0.5620     0.4310 c          1 0H6       0.930200
     46 C25          4.4050    -2.5740     0.9950 c3         1 0H6       0.663600
@<TRIPOS>BOND
     1     1    10 1   
     2     1    12 1   
     3     1    27 1   
     4     1    28 1   
     5     2     3 1   
     6     2     7 1   
     7     2    29 1   
     8     2    30 1   
     9     3    12 1   
    10     3    31 1   
    11     3    32 1   
    12     4     7 1   
    13     4    12 1   
    14     4    33 1   
    15     4    34 1   
    16     5    15 ar  
    17     5    16 ar  
    18     5    35 1   
    19     6     9 1   
    20     6    21 2   
    21     6    36 1   
    22     7    37 1   
    23     7    38 1   
    24     8    17 ar  
    25     8    18 ar  
    26     8    39 1   
    27     9    10 1   
    28     9    23 1   
    29    10    11 1   
    30    10    40 1   
    31    11    13 1   
    32    11    14 2   
    33    12    41 1   
    34    13    15 1   
    35    13    42 1   
    36    15    18 ar  
    37    16    17 ar  
    38    16    43 1   
    39    17    45 1   
    40    19    45 1   
    41    20    45 1   
    42    21    22 1   
    43    21    46 1   
    44    22    23 2   
    45    23    44 1   
    46    24    46 1   
    47    25    46 1   
    48    26    46 1   
@<TRIPOS>SUBSTRUCTURE
     1 0H6         1 TEMP              0 ****  ****    0 ROOT
