@<TRIPOS>MOLECULE
0H6
   46    48     1     0     0
SMALL
No Charge or Current Charge


@<TRIPOS>ATOM
      1 C4           1.0810     2.0980    -1.1100 c3         1 0H6      -0.078400
      2 C7           3.9870     4.5890    -0.6750 c5         1 0H6      -0.077900
      3 C6           2.7600     4.0530    -1.4630 c5         1 0H6      -0.077400
      4 C9           2.3790     3.3830     0.7660 c5         1 0H6      -0.077400
      5 C13         -3.6660    -0.7880    -0.7570 ca         1 0H6      -0.191000
      6 C21          2.4250    -0.5770     0.8600 cc         1 0H6      -0.157000
      7 C8           3.7180     4.1730     0.8080 c5         1 0H6      -0.077900
      8 C16         -5.0020     0.1020     1.4740 ca         1 0H6       0.372900
      9 N1           1.6810    -0.1940    -0.2360 na         1 0H6      -0.144500
     10 C2           0.6530     0.8680    -0.2620 c3         1 0H6      -0.007700
     11 C3          -0.7230     0.3210    -0.7090 c          1 0H6       0.591100
     12 C5           2.4010     2.7780    -0.6610 c5         1 0H6      -0.074700
     13 N10         -1.7020     0.3830     0.2600 ns         1 0H6      -0.305900
     14 O11         -0.9100    -0.1280    -1.8320 o          1 0H6      -0.569100
     15 C12         -3.0440    -0.0210     0.2450 ca         1 0H6       0.416900
     16 C14         -5.0250    -1.1110    -0.6190 ca         1 0H6      -0.044000
     17 C15         -5.7140    -0.6540     0.5250 ca         1 0H6      -0.186600
     18 N17         -3.6890     0.4160     1.3420 nb         1 0H6      -0.763000
     19 O19         -7.7600    -1.6180    -0.0910 o          1 0H6      -0.713000
     20 O20         -7.7040    -0.5320     1.7620 o          1 0H6      -0.713000
     21 C22          3.2600    -1.5740     0.4160 cd         1 0H6       0.110300
     22 N23          3.0460    -1.8130    -0.9330 nd         1 0H6      -0.641000
     23 C24          2.0930    -0.9680    -1.3050 cc         1 0H6       0.428400
     24 F26          4.0460    -3.6690     1.2460 f          1 0H6      -0.115667
     25 F27          5.5460    -2.1700     0.7530 f          1 0H6      -0.115667
     26 F28          4.3150    -1.9350     2.5290 f          1 0H6      -0.115667
     27 H1           1.1740     1.7900    -2.1600 hc         1 0H6       0.065700
     28 H2           0.2680     2.8340    -1.0840 hc         1 0H6       0.065700
     29 H3           4.9160     4.1360    -1.0400 hc         1 0H6       0.040950
     30 H4           4.0980     5.6740    -0.7870 hc         1 0H6       0.040950
     31 H5           1.9360     4.7780    -1.4650 hc         1 0H6       0.043200
     32 H6           3.0030     3.8360    -2.5100 hc         1 0H6       0.043200
     33 H7           2.3320     2.6190     1.5500 hc         1 0H6       0.043200
     34 H8           1.5180     4.0480     0.9100 hc         1 0H6       0.043200
     35 H9          -3.1200    -1.1390    -1.6260 ha         1 0H6       0.132000
     36 H10          2.3160    -0.1290     1.8400 h4         1 0H6       0.169000
     37 H11          4.5330     3.5450     1.1860 hc         1 0H6       0.040950
     38 H12          3.6520     5.0410     1.4750 hc         1 0H6       0.040950
     39 H13         -5.4850     0.4770     2.3760 h4         1 0H6       0.036100
     40 H14          0.5250     1.2150     0.7710 h1         1 0H6       0.077700
     41 H15          3.2010     2.0320    -0.7560 hc         1 0H6       0.059700
     42 H16         -1.4170     0.7980     1.1360 hn         1 0H6       0.155000
     43 H17         -5.5270    -1.7040    -1.3810 ha         1 0H6       0.138000
     44 H19          1.6730    -0.8660    -2.2990 h5         1 0H6       0.069100
     45 C18         -7.1680    -0.9570     0.7500 c          1 0H6       0.719600
     46 C25          4.2930    -2.3380     1.2360 c3         1 0H6       0.299700
@<TRIPOS>BOND
     1     1    10 1   
     2     1    12 1   
     3     1    27 1   
     4     1    28 1   
     5     2     3 1   
     6     2     7 1   
     7     2    29 1   
     8     2    30 1   
     9     3    12 1   
    10     3    31 1   
    11     3    32 1   
    12     4     7 1   
    13     4    12 1   
    14     4    33 1   
    15     4    34 1   
    16     5    15 ar  
    17     5    16 ar  
    18     5    35 1   
    19     6     9 1   
    20     6    21 2   
    21     6    36 1   
    22     7    37 1   
    23     7    38 1   
    24     8    17 ar  
    25     8    18 ar  
    26     8    39 1   
    27     9    10 1   
    28     9    23 1   
    29    10    11 1   
    30    10    40 1   
    31    11    13 1   
    32    11    14 2   
    33    12    41 1   
    34    13    15 1   
    35    13    42 1   
    36    15    18 ar  
    37    16    17 ar  
    38    16    43 1   
    39    17    45 1   
    40    19    45 1   
    41    20    45 1   
    42    21    22 1   
    43    21    46 1   
    44    22    23 2   
    45    23    44 1   
    46    24    46 1   
    47    25    46 1   
    48    26    46 1   
@<TRIPOS>SUBSTRUCTURE
     1 0H6         1 TEMP              0 ****  ****    0 ROOT
