@<TRIPOS>MOLECULE
0H7
   39    42     1     0     0
SMALL
No Charge or Current Charge


@<TRIPOS>ATOM
      1 O1           0.0660    -1.0560    -2.0990 oh         1 0H7      -0.644000
      2 C2          -0.0330    -0.4840    -0.7990 c3         1 0H7       0.353600
      3 C3           0.4630    -1.5250     0.2810 c6         1 0H7      -0.119700
      4 C4          -0.3630    -2.8610     0.3090 c6         1 0H7       0.150800
      5 N5           0.5360    -4.0530     0.4180 n3         1 0H7      -0.680600
      6 C6           1.4170    -4.1230    -0.7910 c6         1 0H7       0.146300
      7 C7           2.3290    -2.8600    -0.8900 c6         1 0H7      -0.107400
      8 C8           1.9950    -1.8820     0.2740 c6         1 0H7      -0.053700
      9 C9           2.2790    -2.6650     1.5910 c6         1 0H7      -0.107400
     10 C10          1.3800    -3.9420     1.6490 c6         1 0H7       0.146300
     11 C11          0.8210     0.7650    -0.7720 cc         1 0H7      -0.233300
     12 C12          1.6920     1.2400    -1.7310 cd         1 0H7      -0.098000
     13 C13          2.3490     2.4480    -1.3690 cd         1 0H7      -0.124500
     14 C14          1.9840     2.9030    -0.1320 cc         1 0H7      -0.024000
     15 Cl1          2.5800     4.3410     0.6380 cl         1 0H7      -0.141000
     16 S16          0.8090     1.8420     0.6310 ss         1 0H7       0.232500
     17 C17         -1.4940    -0.1010    -0.6260 cc         1 0H7      -0.233300
     18 C18         -2.4060     0.2270    -1.6090 cd         1 0H7      -0.098000
     19 C19         -3.7010     0.5510    -1.1190 cd         1 0H7      -0.124500
     20 C20         -3.7910     0.4780     0.2430 cc         1 0H7      -0.024000
     21 Cl2         -5.2100     0.8070     1.1870 cl         1 0H7      -0.141000
     22 S22         -2.2600     0.0170     0.9700 ss         1 0H7       0.232500
     23 H1          -0.7120    -1.6400    -2.1870 ho         1 0H7       0.454000
     24 H2           0.2890    -1.0280     1.2440 hc         1 0H7       0.056700
     25 H3          -1.0620    -2.8340     1.1580 h1         1 0H7       0.055700
     26 H4          -0.9840    -2.9470    -0.5940 h1         1 0H7       0.055700
     27 H6           2.0480    -5.0240    -0.7560 h1         1 0H7       0.053200
     28 H7           0.8070    -4.2010    -1.7040 h1         1 0H7       0.053200
     29 H8           3.3830    -3.1640    -0.8290 hc         1 0H7       0.049950
     30 H9           2.2200    -2.3770    -1.8680 hc         1 0H7       0.049950
     31 H10          2.6240    -0.9820     0.2250 hc         1 0H7       0.066700
     32 H11          3.3380    -2.9510     1.6450 hc         1 0H7       0.049950
     33 H12          2.0870    -2.0300     2.4670 hc         1 0H7       0.049950
     34 H13          0.7430    -3.8970     2.5460 h1         1 0H7       0.053200
     35 H14          2.0190    -4.8310     1.7580 h1         1 0H7       0.053200
     36 H15          1.8680     0.7380    -2.6780 ha         1 0H7       0.149000
     37 H16          3.0650     2.9570    -2.0060 ha         1 0H7       0.147000
     38 H17         -2.1630     0.2510    -2.6680 ha         1 0H7       0.149000
     39 H18         -4.5330     0.8300    -1.7580 ha         1 0H7       0.147000
@<TRIPOS>BOND
     1     1     2 1   
     2     1    23 1   
     3     2     3 1   
     4     2    11 1   
     5     2    17 1   
     6     3     4 1   
     7     3     8 1   
     8     3    24 1   
     9     4     5 1   
    10     4    25 1   
    11     4    26 1   
    12     5     6 1   
    13     5    10 1   
    14     6     7 1   
    15     6    27 1   
    16     6    28 1   
    17     7     8 1   
    18     7    29 1   
    19     7    30 1   
    20     8     9 1   
    21     8    31 1   
    22     9    10 1   
    23     9    32 1   
    24     9    33 1   
    25    10    34 1   
    26    10    35 1   
    27    11    12 2   
    28    11    16 1   
    29    12    13 1   
    30    12    36 1   
    31    13    14 2   
    32    13    37 1   
    33    14    15 1   
    34    14    16 1   
    35    17    18 2   
    36    17    22 1   
    37    18    19 1   
    38    18    38 1   
    39    19    20 2   
    40    19    39 1   
    41    20    21 1   
    42    20    22 1   
@<TRIPOS>SUBSTRUCTURE
     1 0H7         1 TEMP              0 ****  ****    0 ROOT
