@<TRIPOS>MOLECULE
0H7
   39    42     1     0     0
SMALL
bcc


@<TRIPOS>ATOM
      1 O1           0.1070    -1.0710    -2.1050 oh         1 0H7      -0.581800
      2 C2          -0.0370    -0.5350    -0.8190 c3         1 0H7       0.330400
      3 C3           0.4220    -1.4990     0.3020 c6         1 0H7      -0.119700
      4 C4          -0.3500    -2.8490     0.3100 c6         1 0H7       0.150800
      5 N5           0.5500    -3.9900     0.3380 n3         1 0H7      -0.680600
      6 C6           1.4160    -3.9670    -0.8360 c6         1 0H7       0.146300
      7 C7           2.3470    -2.7330    -0.8290 c6         1 0H7      -0.107400
      8 C8           1.9220    -1.8330     0.3330 c6         1 0H7      -0.053700
      9 C9           2.1680    -2.6140     1.6280 c6         1 0H7      -0.107400
     10 C10          1.3610    -3.9350     1.5490 c6         1 0H7       0.146300
     11 C11          0.8160     0.7120    -0.8140 cc         1 0H7      -0.088400
     12 C12          1.6750     1.1490    -1.7740 cd         1 0H7      -0.116000
     13 C13          2.3590     2.3450    -1.4190 cd         1 0H7      -0.142500
     14 C14          1.9990     2.7820    -0.1870 cc         1 0H7       0.029300
     15 CL1          2.5630     4.1740     0.6260 cl         1 0H7      -0.049400
     16 S16          0.8250     1.7660     0.5550 ss         1 0H7      -0.057300
     17 C17         -1.4930    -0.1450    -0.6150 cc         1 0H7      -0.088400
     18 C18         -2.4000     0.1620    -1.5820 cd         1 0H7      -0.116000
     19 C19         -3.6700     0.5430    -1.0710 cd         1 0H7      -0.142500
     20 C20         -3.6910     0.5180     0.2860 cc         1 0H7       0.029300
     21 CL2         -5.0060     0.8930     1.3090 cl         1 0H7      -0.049400
     22 S22         -2.1880     0.0220     0.9580 ss         1 0H7      -0.057300
     23 H1          -0.4590    -1.8460    -2.1890 ho         1 0H7       0.415000
     24 H2           0.2170    -0.9820     1.2490 hc         1 0H7       0.056700
     25 H3          -1.0040    -2.9040     1.1830 h1         1 0H7       0.055700
     26 H4          -1.0080    -2.9560    -0.5590 h1         1 0H7       0.055700
     27 H6           1.9920    -4.8940    -0.8580 h1         1 0H7       0.053200
     28 H7           0.7800    -3.9760    -1.7260 h1         1 0H7       0.053200
     29 H8           3.3850    -3.0350    -0.6690 hc         1 0H7       0.049950
     30 H9           2.3230    -2.2040    -1.7790 hc         1 0H7       0.049950
     31 H10          2.5150    -0.9160     0.3370 hc         1 0H7       0.066700
     32 H11          3.2350    -2.8130     1.7410 hc         1 0H7       0.049950
     33 H12          1.8630    -2.0180     2.4930 hc         1 0H7       0.049950
     34 H13          0.6990    -4.0400     2.4120 h1         1 0H7       0.053200
     35 H14          2.0260    -4.8020     1.5540 h1         1 0H7       0.053200
     36 H15          1.8320     0.6390    -2.7130 ha         1 0H7       0.167000
     37 H16          3.0780     2.8460    -2.0500 ha         1 0H7       0.165000
     38 H17         -2.1750     0.1300    -2.6390 ha         1 0H7       0.167000
     39 H18         -4.5170     0.8180    -1.6810 ha         1 0H7       0.165000
@<TRIPOS>BOND
     1     1     2 1   
     2     1    23 1   
     3     2     3 1   
     4     2    11 1   
     5     2    17 1   
     6     3     4 1   
     7     3     8 1   
     8     3    24 1   
     9     4     5 1   
    10     4    25 1   
    11     4    26 1   
    12     5     6 1   
    13     5    10 1   
    14     6     7 1   
    15     6    27 1   
    16     6    28 1   
    17     7     8 1   
    18     7    29 1   
    19     7    30 1   
    20     8     9 1   
    21     8    31 1   
    22     9    10 1   
    23     9    32 1   
    24     9    33 1   
    25    10    34 1   
    26    10    35 1   
    27    11    12 2   
    28    11    16 1   
    29    12    13 1   
    30    12    36 1   
    31    13    14 2   
    32    13    37 1   
    33    14    15 1   
    34    14    16 1   
    35    17    18 2   
    36    17    22 1   
    37    18    19 1   
    38    18    38 1   
    39    19    20 2   
    40    19    39 1   
    41    20    21 1   
    42    20    22 1   
@<TRIPOS>SUBSTRUCTURE
     1 0H7         1 TEMP              0 ****  ****    0 ROOT
