@<TRIPOS>MOLECULE
0H8
   64    64     1     0     0
SMALL
abcg2


@<TRIPOS>ATOM
      1 C1          14.2580    48.0280     0.2920 c          1 0H8       0.720000
      2 O1          13.6210    49.0740     0.0570 o          1 0H8      -0.747000
      3 O2          15.2740    47.6190    -0.3000 o          1 0H8      -0.747000
      4 C2          13.7110    47.1710     1.4560 c3         1 0H8      -0.206400
      5 C3          14.3940    45.8160     1.6350 c3         1 0H8      -0.134400
      6 C4          13.8160    45.0470     2.8000 c          1 0H8       0.597100
      7 O4          14.3880    44.9270     3.8770 o          1 0H8      -0.638100
      8 N           12.5960    44.5180     2.5890 ns         1 0H8      -0.500900
      9 CA          11.8960    43.7820     3.6130 c3         1 0H8       0.048700
     10 C           12.6840    42.5140     3.9520 c          1 0H8       0.609100
     11 O           13.2060    41.8550     3.0620 o          1 0H8      -0.608100
     12 CB          10.4610    43.4670     3.1330 c3         1 0H8      -0.055700
     13 CG1         10.3870    42.4950     1.9580 c3         1 0H8      -0.092600
     14 CG2          9.5720    42.9780     4.2700 c3         1 0H8      -0.092600
     15 N1          12.7600    42.1330     5.2380 n          1 0H8      -0.382800
     16 CA1         13.4200    40.8860     5.5650 c5         1 0H8       0.017700
     17 C5          12.6180    39.6860     5.0660 c          1 0H8       0.592100
     18 O3          11.3990    39.7310     4.9370 o          1 0H8      -0.684100
     19 CB1         13.4770    40.8870     7.1020 c5         1 0H8      -0.086400
     20 CG          12.3110    41.7810     7.5040 c5         1 0H8      -0.091400
     21 CD          12.3060    42.8530     6.4240 c5         1 0H8       0.111000
     22 N2          13.3660    38.6020     4.8650 ns         1 0H8      -0.414900
     23 CA2         12.8790    37.2370     4.7620 c3         1 0H8      -0.202300
     24 P           13.5510    36.3190     6.2660 p5         1 0H8       1.280500
     25 O1P         12.8660    37.0050     7.4580 o          1 0H8      -0.923500
     26 O2P         13.1520    34.8530     6.0630 o          1 0H8      -0.923500
     27 CB2         13.2660    36.6310     3.4170 c3         1 0H8      -0.043400
     28 CG3         12.7620    37.4200     2.2140 c3         1 0H8      -0.085400
     29 CD1         13.0980    36.7680     0.8790 c3         1 0H8      -0.073400
     30 CE          12.6340    37.5970    -0.3100 c3         1 0H8       0.136800
     31 NZ          12.9540    36.9400    -1.5700 n8         1 0H8      -1.005200
     32 H21         13.8020    47.7530     2.3800 hc         1 0H8       0.020700
     33 H22         12.6360    47.0360     1.3070 hc         1 0H8       0.020700
     34 H31         14.2900    45.2270     0.7210 hc         1 0H8       0.064700
     35 H32         15.4600    45.9530     1.8120 hc         1 0H8       0.064700
     36 H           12.1790    44.6000     1.6760 hn         1 0H8       0.316500
     37 HA          11.8120    44.4230     4.4940 h1         1 0H8       0.053700
     38 HB          10.0610    44.4310     2.7990 hc         1 0H8       0.023700
     39 HG11         9.3650    42.4680     1.5790 hc         1 0H8       0.039867
     40 HG12        11.0330    42.7720     1.1250 hc         1 0H8       0.039867
     41 HG13        10.6520    41.4810     2.2600 hc         1 0H8       0.039867
     42 HG21         8.5570    42.8190     3.9040 hc         1 0H8       0.039867
     43 HG22         9.9220    42.0290     4.6800 hc         1 0H8       0.039867
     44 HG23         9.5140    43.7040     5.0820 hc         1 0H8       0.039867
     45 HA1         14.4270    40.8540     5.1410 h1         1 0H8       0.072700
     46 HB2         13.4170    39.8780     7.5120 hc         1 0H8       0.076700
     47 HB3         14.4220    41.3240     7.4290 hc         1 0H8       0.076700
     48 HG2         11.3740    41.2240     7.4830 hc         1 0H8       0.046200
     49 HG3         12.4250    42.2060     8.5000 hc         1 0H8       0.046200
     50 HD2         13.0010    43.6630     6.6680 h1         1 0H8       0.026200
     51 HD3         11.3180    43.2860     6.2920 h1         1 0H8       0.026200
     52 HN2         14.3470    38.6640     5.1010 hn         1 0H8       0.318500
     53 HA2         11.7890    37.2730     4.8220 h1         1 0H8       0.048700
     54 HB1         14.3570    36.5360     3.3620 hc         1 0H8       0.038700
     55 HB21        12.8720    35.6110     3.3770 hc         1 0H8       0.038700
     56 HG1         11.6760    37.5460     2.2930 hc         1 0H8       0.036200
     57 HG24        13.1840    38.4300     2.2380 hc         1 0H8       0.036200
     58 HD1         14.1820    36.6160     0.8100 hc         1 0H8       0.030200
     59 HD21        12.6440    35.7740     0.8220 hc         1 0H8       0.030200
     60 HE1         11.5490    37.7200    -0.2550 h1         1 0H8       0.028200
     61 HE2         13.0600    38.6080    -0.2220 h1         1 0H8       0.028200
     62 HNZ1        12.6130    37.5030    -2.3400 hn         1 0H8       0.371500
     63 HNZ2        13.9610    36.9130    -1.6830 hn         1 0H8       0.371500
     64 O8          15.0640    36.5850     6.1780 o          1 0H8      -0.923500
@<TRIPOS>BOND
     1     1     2 1   
     2     1     3 1   
     3     1     4 1   
     4     4     5 1   
     5     4    32 1   
     6     4    33 1   
     7     5     6 1   
     8     5    34 1   
     9     5    35 1   
    10     6     7 2   
    11     6     8 1   
    12     8     9 1   
    13     8    36 1   
    14     9    10 1   
    15     9    12 1   
    16     9    37 1   
    17    10    11 2   
    18    10    15 1   
    19    12    13 1   
    20    12    14 1   
    21    12    38 1   
    22    13    39 1   
    23    13    40 1   
    24    13    41 1   
    25    14    42 1   
    26    14    43 1   
    27    14    44 1   
    28    15    16 1   
    29    15    21 1   
    30    16    17 1   
    31    16    19 1   
    32    16    45 1   
    33    17    18 2   
    34    17    22 1   
    35    19    20 1   
    36    19    46 1   
    37    19    47 1   
    38    20    21 1   
    39    20    48 1   
    40    20    49 1   
    41    21    50 1   
    42    21    51 1   
    43    22    23 1   
    44    22    52 1   
    45    23    24 1   
    46    23    27 1   
    47    23    53 1   
    48    24    25 1   
    49    24    26 1   
    50    24    64 1   
    51    27    28 1   
    52    27    54 1   
    53    27    55 1   
    54    28    29 1   
    55    28    56 1   
    56    28    57 1   
    57    29    30 1   
    58    29    58 1   
    59    29    59 1   
    60    30    31 1   
    61    30    60 1   
    62    30    61 1   
    63    31    62 1   
    64    31    63 1   
@<TRIPOS>SUBSTRUCTURE
     1 0H8         1 TEMP              0 ****  ****    0 ROOT
