@<TRIPOS>MOLECULE
0H8
   64    64     1     0     0
SMALL
No Charge or Current Charge


@<TRIPOS>ATOM
      1 C1          14.3410    46.9240    -0.9800 c          1 0H8       0.720000
      2 O1          14.8980    46.0800    -1.6650 o          1 0H8      -0.747000
      3 O2          14.5660    48.1210    -1.0640 o          1 0H8      -0.747000
      4 C2          13.3560    46.4440     0.1020 c3         1 0H8      -0.206400
      5 C3          14.1040    46.1700     1.4370 c3         1 0H8      -0.134400
      6 C4          13.1550    45.6990     2.5470 c          1 0H8       0.597100
      7 O4          12.4090    46.4630     3.1450 o          1 0H8      -0.638100
      8 N           13.2360    44.3600     2.8520 ns         1 0H8      -0.500900
      9 CA          12.4090    43.6600     3.8630 c3         1 0H8       0.048700
     10 C           13.1530    42.3650     4.3370 c          1 0H8       0.609100
     11 O           13.9350    41.7810     3.5910 o          1 0H8      -0.608100
     12 CB          10.9770    43.3760     3.2950 c3         1 0H8      -0.055700
     13 CG1         10.9770    42.3330     2.1480 c3         1 0H8      -0.092600
     14 CG2          9.9420    43.0010     4.3780 c3         1 0H8      -0.092600
     15 N1          12.8740    41.8310     5.6140 n          1 0H8      -0.382800
     16 CA1         13.3740    40.4850     6.0160 c5         1 0H8       0.017700
     17 C5          12.4920    39.3150     5.4690 c          1 0H8       0.592100
     18 O3          11.3050    39.3610     5.1580 o          1 0H8      -0.684100
     19 CB1         13.2630    40.5440     7.5720 c5         1 0H8      -0.086400
     20 CG          12.1020    41.5450     7.7960 c5         1 0H8      -0.091400
     21 CD          12.4470    42.6470     6.7680 c5         1 0H8       0.111000
     22 N2          13.2760    38.1820     5.3380 ns         1 0H8      -0.414900
     23 CA2         12.8350    36.8840     4.7560 c3         1 0H8      -0.202300
     24 P           13.4750    35.4060     5.7220 p5         1 0H8       1.280500
     25 O1P         12.9560    35.4820     7.1190 o          1 0H8      -0.923500
     26 O2P         13.0070    34.1440     5.0790 o          1 0H8      -0.923500
     27 CB2         13.1650    36.7950     3.2400 c3         1 0H8      -0.043400
     28 CG3         12.5660    37.9350     2.3790 c3         1 0H8      -0.085400
     29 CD1         12.8400    37.7710     0.8680 c3         1 0H8      -0.073400
     30 CE          12.2510    38.9250     0.0280 c3         1 0H8       0.136800
     31 NZ          12.5200    38.7440    -1.4110 n8         1 0H8      -1.005200
     32 H21         12.6220    47.2290     0.3240 hc         1 0H8       0.020700
     33 H22         12.9030    45.4880    -0.1880 hc         1 0H8       0.020700
     34 H31         14.8670    45.4030     1.2510 hc         1 0H8       0.064700
     35 H32         14.5870    47.0990     1.7620 hc         1 0H8       0.064700
     36 H           13.8990    43.8080     2.3200 hn         1 0H8       0.316500
     37 HA          12.3190    44.3300     4.7260 h1         1 0H8       0.053700
     38 HB          10.6160    44.3160     2.8580 hc         1 0H8       0.023700
     39 HG11         9.9780    42.2500     1.7040 hc         1 0H8       0.039867
     40 HG12        11.6730    42.6220     1.3520 hc         1 0H8       0.039867
     41 HG13        11.2660    41.3400     2.5150 hc         1 0H8       0.039867
     42 HG21         8.9440    42.8940     3.9350 hc         1 0H8       0.039867
     43 HG22        10.1960    42.0510     4.8630 hc         1 0H8       0.039867
     44 HG23         9.8800    43.7830     5.1440 hc         1 0H8       0.039867
     45 HA1         14.4140    40.3290     5.6980 h1         1 0H8       0.072700
     46 HB2         13.0750    39.5640     8.0290 hc         1 0H8       0.076700
     47 HB3         14.1920    40.9260     8.0120 hc         1 0H8       0.076700
     48 HG2         11.1300    41.0880     7.5760 hc         1 0H8       0.046200
     49 HG3         12.0620    41.9270     8.8220 hc         1 0H8       0.046200
     50 HD2         13.2720    43.2830     7.1160 h1         1 0H8       0.026200
     51 HD3         11.5810    43.2830     6.5550 h1         1 0H8       0.026200
     52 HN2         14.2360    38.2550     5.6560 hn         1 0H8       0.318500
     53 HA2         11.7470    36.8120     4.8710 h1         1 0H8       0.048700
     54 HB1         14.2550    36.7840     3.1100 hc         1 0H8       0.038700
     55 HB21        12.7950    35.8370     2.8550 hc         1 0H8       0.038700
     56 HG1         11.4830    37.9790     2.5430 hc         1 0H8       0.036200
     57 HG24        12.9810    38.8970     2.7030 hc         1 0H8       0.036200
     58 HD1         13.9230    37.7180     0.7030 hc         1 0H8       0.030200
     59 HD21        12.4130    36.8190     0.5260 hc         1 0H8       0.030200
     60 HE1         11.1640    38.9760     0.1800 h1         1 0H8       0.028200
     61 HE2         12.6910    39.8790     0.3520 h1         1 0H8       0.028200
     62 HNZ1        12.1770    39.5680    -1.9210 hn         1 0H8       0.371500
     63 HNZ2        13.5350    38.7660    -1.5640 hn         1 0H8       0.371500
     64 O8          14.9660    35.4530     5.7380 o          1 0H8      -0.923500
@<TRIPOS>BOND
     1     1     2 1   
     2     1     3 1   
     3     1     4 1   
     4     4     5 1   
     5     4    32 1   
     6     4    33 1   
     7     5     6 1   
     8     5    34 1   
     9     5    35 1   
    10     6     7 2   
    11     6     8 1   
    12     8     9 1   
    13     8    36 1   
    14     9    10 1   
    15     9    12 1   
    16     9    37 1   
    17    10    11 2   
    18    10    15 1   
    19    12    13 1   
    20    12    14 1   
    21    12    38 1   
    22    13    39 1   
    23    13    40 1   
    24    13    41 1   
    25    14    42 1   
    26    14    43 1   
    27    14    44 1   
    28    15    16 1   
    29    15    21 1   
    30    16    17 1   
    31    16    19 1   
    32    16    45 1   
    33    17    18 2   
    34    17    22 1   
    35    19    20 1   
    36    19    46 1   
    37    19    47 1   
    38    20    21 1   
    39    20    48 1   
    40    20    49 1   
    41    21    50 1   
    42    21    51 1   
    43    22    23 1   
    44    22    52 1   
    45    23    24 1   
    46    23    27 1   
    47    23    53 1   
    48    24    25 1   
    49    24    26 1   
    50    24    64 1   
    51    27    28 1   
    52    27    54 1   
    53    27    55 1   
    54    28    29 1   
    55    28    56 1   
    56    28    57 1   
    57    29    30 1   
    58    29    58 1   
    59    29    59 1   
    60    30    31 1   
    61    30    60 1   
    62    30    61 1   
    63    31    62 1   
    64    31    63 1   
@<TRIPOS>SUBSTRUCTURE
     1 0H8         1 TEMP              0 ****  ****    0 ROOT
