@<TRIPOS>MOLECULE
0H9
   30    30     1     0     0
SMALL
No Charge or Current Charge


@<TRIPOS>ATOM
      1 CAA         -6.7120     1.1230     0.5480 c3         1 0H9       0.152900
      2 CAE         -2.6610     0.8690    -0.9180 ca         1 0H9      -0.064000
      3 CAF         -2.5460    -1.3990    -0.0460 ca         1 0H9      -0.064000
      4 CAG         -3.9840     0.9830    -0.4520 ca         1 0H9      -0.179000
      5 CAH         -3.8680    -1.2850     0.4190 ca         1 0H9      -0.179000
      6 CAI          1.8660    -0.2070    -0.5460 c3         1 0H9       0.194800
      7 CAK          2.7060     0.1510     0.6780 c3         1 0H9      -0.358400
      8 CAN         -1.9360    -0.3220    -0.7180 ca         1 0H9      -0.106300
      9 CAO         -4.5930    -0.0990     0.2210 ca         1 0H9       0.124100
     10 NAL          0.4530    -0.1590    -0.1510 n7         1 0H9      -0.862400
     11 OAB          4.6320     1.1110    -0.7550 o          1 0H9      -0.697533
     12 OAC          5.0930     0.4770     1.5890 o          1 0H9      -0.697533
     13 OAD          4.7140    -1.2770    -0.1100 o          1 0H9      -0.697533
     14 OAM         -5.8860    -0.0450     0.7000 os         1 0H9      -0.348100
     15 SAP          4.4680     0.1110     0.3100 s6         1 0H9       1.322600
     16 H1          -6.8590     1.3610    -0.5130 h1         1 0H9       0.033700
     17 H2          -7.6970     0.9530     0.9990 h1         1 0H9       0.033700
     18 H3          -6.2560     1.9900     1.0440 h1         1 0H9       0.033700
     19 H4          -2.2000     1.7070    -1.4350 ha         1 0H9       0.121000
     20 H5          -1.9940    -2.3220     0.1160 ha         1 0H9       0.121000
     21 H6          -4.5160     1.9150    -0.6210 ha         1 0H9       0.113000
     22 H7          -4.3320    -2.1200     0.9370 ha         1 0H9       0.113000
     23 H8           2.0640     0.5080    -1.3570 h1         1 0H9       0.040200
     24 H9           2.1320    -1.2120    -0.9030 h1         1 0H9       0.040200
     25 H10         -0.3530    -1.4650    -1.6170 h1         1 0H9       0.031700
     26 H11         -0.3620     0.2470    -2.0670 h1         1 0H9       0.031700
     27 H12          2.4820     1.1650     1.0250 h1         1 0H9       0.070200
     28 H13          2.5390    -0.5660     1.4880 h1         1 0H9       0.070200
     29 H14          0.2550     0.7840     0.1970 hn         1 0H9       0.401000
     30 CAJ         -0.5070    -0.4480    -1.2290 c3         1 0H9       0.205100
@<TRIPOS>BOND
     1     1    14 1   
     2     1    16 1   
     3     1    17 1   
     4     1    18 1   
     5     2     4 ar  
     6     2     8 ar  
     7     2    19 1   
     8     3     5 ar  
     9     3     8 ar  
    10     3    20 1   
    11     4     9 ar  
    12     4    21 1   
    13     5     9 ar  
    14     5    22 1   
    15     6     7 1   
    16     6    10 1   
    17     6    23 1   
    18     6    24 1   
    19     7    15 1   
    20     7    27 1   
    21     7    28 1   
    22     8    30 1   
    23     9    14 1   
    24    10    29 1   
    25    10    30 1   
    26    11    15 1   
    27    12    15 1   
    28    13    15 1   
    29    25    30 1   
    30    26    30 1   
@<TRIPOS>SUBSTRUCTURE
     1 0H9         1 TEMP              0 ****  ****    0 ROOT
