@<TRIPOS>MOLECULE
0H9
   30    30     1     0     0
SMALL
bcc


@<TRIPOS>ATOM
      1 CAA         -6.7870     0.8640     0.3330 c3         1 0H9       0.129700
      2 CAE         -2.8350     0.8810    -1.0930 ca         1 0H9      -0.082000
      3 CAF         -2.3750    -0.9800     0.3200 ca         1 0H9      -0.082000
      4 CAG         -4.1550     0.9110    -0.6510 ca         1 0H9      -0.197000
      5 CAH         -3.6800    -0.9670     0.7730 ca         1 0H9      -0.197000
      6 CAI          1.8180    -0.1110    -0.5060 c3         1 0H9       0.194800
      7 CAK          2.7730    -0.1360     0.6730 c3         1 0H9      -0.247600
      8 CAN         -1.9270    -0.0580    -0.6280 ca         1 0H9      -0.106300
      9 CAO         -4.5860    -0.0180     0.2900 ca         1 0H9       0.124100
     10 NAL          0.4440    -0.0790    -0.0380 n7         1 0H9      -0.807200
     11 OAB          4.7370     1.0610    -0.5900 o          1 0H9      -0.697533
     12 OAC          5.2660    -0.2310     1.4410 o          1 0H9      -0.697533
     13 OAD          4.6580    -1.4000    -0.6400 o          1 0H9      -0.697533
     14 OAM         -5.8370    -0.0770     0.7880 os         1 0H9      -0.324900
     15 SAP          4.5030    -0.1800     0.1780 s6         1 0H9       1.211800
     16 H1          -6.9650     0.7810    -0.7430 h1         1 0H9       0.033700
     17 H2          -7.7150     0.6460     0.8570 h1         1 0H9       0.033700
     18 H3          -6.4880     1.8910     0.5600 h1         1 0H9       0.033700
     19 H4          -2.5160     1.6180    -1.8210 ha         1 0H9       0.139000
     20 H5          -1.6900    -1.7210     0.7130 ha         1 0H9       0.139000
     21 H6          -4.8200     1.6650    -1.0500 ha         1 0H9       0.131000
     22 H7          -4.0110    -1.6920     1.5070 ha         1 0H9       0.131000
     23 H8           2.0600     0.7380    -1.1620 h1         1 0H9       0.040200
     24 H9           1.9530    -1.0160    -1.1030 h1         1 0H9       0.040200
     25 H10         -0.3460    -1.0090    -1.7060 h1         1 0H9       0.031700
     26 H11         -0.3620     0.7380    -1.8410 h1         1 0H9       0.031700
     27 H12          2.6460     0.7510     1.2990 h1         1 0H9       0.070200
     28 H13          2.5900    -1.0130     1.2970 h1         1 0H9       0.070200
     29 H14          0.3010     0.7630     0.5090 hn         1 0H9       0.345800
     30 CAJ         -0.5110    -0.0900    -1.1310 c3         1 0H9       0.205100
@<TRIPOS>BOND
     1     1    14 1   
     2     1    16 1   
     3     1    17 1   
     4     1    18 1   
     5     2     4 ar  
     6     2     8 ar  
     7     2    19 1   
     8     3     5 ar  
     9     3     8 ar  
    10     3    20 1   
    11     4     9 ar  
    12     4    21 1   
    13     5     9 ar  
    14     5    22 1   
    15     6     7 1   
    16     6    10 1   
    17     6    23 1   
    18     6    24 1   
    19     7    15 1   
    20     7    27 1   
    21     7    28 1   
    22     8    30 1   
    23     9    14 1   
    24    10    29 1   
    25    10    30 1   
    26    11    15 1   
    27    12    15 1   
    28    13    15 1   
    29    25    30 1   
    30    26    30 1   
@<TRIPOS>SUBSTRUCTURE
     1 0H9         1 TEMP              0 ****  ****    0 ROOT
