@<TRIPOS>MOLECULE
0HD
   37    39     1     0     0
SMALL
No Charge or Current Charge


@<TRIPOS>ATOM
      1 C10          6.7960     0.7420     1.1660 ca         1 0HD      -0.108000
      2 N12         -1.2020    -0.8710     0.1460 ns         1 0HD      -0.166000
      3 C13         -2.6040    -0.6330     0.1010 ca         1 0HD      -0.049000
      4 C15         -4.5690     0.7530    -0.1260 ca         1 0HD      -0.205900
      5 C20         -4.8660    -1.6060     0.2380 ca         1 0HD      -0.104000
      6 C21         -3.4620    -1.7520     0.2690 ca         1 0HD      -0.120000
      7 O01         -0.1670     1.1820    -0.1670 o          1 0HD      -0.622100
      8 C02         -0.1110    -0.0250     0.0210 c          1 0HD       0.656100
      9 N03          1.0860    -0.6920     0.1310 ns         1 0HD      -0.522900
     10 C04          2.3970    -0.0470     0.0380 c3         1 0HD       0.111000
     11 C05          3.5480    -1.0560     0.1970 c3         1 0HD      -0.046100
     12 C06          4.9110    -0.3840     0.1000 ca         1 0HD      -0.084300
     13 C07          5.5490    -0.2480    -1.1490 ca         1 0HD      -0.104000
     14 C08          6.8040     0.3780    -1.2390 ca         1 0HD      -0.108000
     15 C09          7.4290     0.8730    -0.0820 ca         1 0HD      -0.107000
     16 C11          5.5410     0.1160     1.2560 ca         1 0HD      -0.104000
     17 C14         -3.1710     0.6530    -0.1020 ca         1 0HD      -0.054000
     18 C16         -5.3800    -0.3210     0.0360 ca         1 0HD      -0.063200
     19 N17         -6.6920     0.1090    -0.0380 na         1 0HD      -0.062400
     20 N18         -6.7370     1.5000    -0.2540 nc         1 0HD      -0.515100
     21 C19         -5.4490     1.8830    -0.3060 cd         1 0HD       0.351800
     22 H1           7.2780     1.1260     2.0620 ha         1 0HD       0.113500
     23 H2          -0.9600    -1.8400     0.2970 hn         1 0HD       0.142000
     24 H3          -5.5230    -2.4640     0.3670 ha         1 0HD       0.120000
     25 H4          -3.0370    -2.7420     0.4250 ha         1 0HD       0.107000
     26 H5           1.0460    -1.6920     0.2860 hn         1 0HD       0.301500
     27 H6           2.4800     0.4520    -0.9370 h1         1 0HD       0.058200
     28 H7           2.4720     0.7190     0.8220 h1         1 0HD       0.058200
     29 H8           3.4470    -1.5670     1.1630 hc         1 0HD       0.050200
     30 H9           3.4540    -1.8320    -0.5730 hc         1 0HD       0.050200
     31 H10          5.0710    -0.6270    -2.0500 ha         1 0HD       0.111500
     32 H11          7.2920     0.4790    -2.2060 ha         1 0HD       0.113500
     33 H12          8.4000     1.3570    -0.1520 ha         1 0HD       0.113000
     34 H13          5.0570     0.0210     2.2260 ha         1 0HD       0.111500
     35 H14         -2.5660     1.5450    -0.2370 ha         1 0HD       0.151000
     36 H15         -7.5320    -0.4640     0.0460 hn         1 0HD       0.375000
     37 H16         -5.2120     2.9280    -0.4660 h4         1 0HD       0.052800
@<TRIPOS>BOND
     1     1    15 ar  
     2     1    16 ar  
     3     1    22 1   
     4     2     3 1   
     5     2     8 1   
     6     2    23 1   
     7     3     6 ar  
     8     3    17 ar  
     9     4    17 ar  
    10     4    18 ar  
    11     4    21 1   
    12     5     6 ar  
    13     5    18 ar  
    14     5    24 1   
    15     6    25 1   
    16     7     8 2   
    17     8     9 1   
    18     9    10 1   
    19     9    26 1   
    20    10    11 1   
    21    10    27 1   
    22    10    28 1   
    23    11    12 1   
    24    11    29 1   
    25    11    30 1   
    26    12    13 ar  
    27    12    16 ar  
    28    13    14 ar  
    29    13    31 1   
    30    14    15 ar  
    31    14    32 1   
    32    15    33 1   
    33    16    34 1   
    34    17    35 1   
    35    18    19 1   
    36    19    20 1   
    37    19    36 1   
    38    20    21 2   
    39    21    37 1   
@<TRIPOS>SUBSTRUCTURE
     1 0HD         1 TEMP              0 ****  ****    0 ROOT
