@<TRIPOS>MOLECULE
0HD
   37    39     1     0     0
SMALL
abcg2


@<TRIPOS>ATOM
      1 C10          6.7460     0.7120     0.9950 ca         1 0HD      -0.108000
      2 N12         -1.1920    -0.9230     0.5190 ns         1 0HD      -0.166000
      3 C13         -2.5360    -0.6290     0.2640 ca         1 0HD      -0.049000
      4 C15         -4.4020     0.7990    -0.1460 ca         1 0HD      -0.205900
      5 C20         -4.7720    -1.6060     0.0420 ca         1 0HD      -0.104000
      6 C21         -3.4210    -1.7400     0.2450 ca         1 0HD      -0.120000
      7 O01         -0.1750     0.8850    -0.4450 o          1 0HD      -0.622100
      8 C02         -0.0980    -0.1850     0.1410 c          1 0HD       0.656100
      9 N03          1.0850    -0.7670     0.4660 ns         1 0HD      -0.522900
     10 C04          2.3470    -0.0860     0.2790 c3         1 0HD       0.111000
     11 C05          3.4920    -1.0950     0.2370 c3         1 0HD      -0.046100
     12 C06          4.8140    -0.4030     0.0570 ca         1 0HD      -0.084300
     13 C07          5.3220    -0.1570    -1.2180 ca         1 0HD      -0.104000
     14 C08          6.5270     0.5120    -1.3870 ca         1 0HD      -0.108000
     15 C09          7.2430     0.9500    -0.2800 ca         1 0HD      -0.107000
     16 C11          5.5410     0.0410     1.1590 ca         1 0HD      -0.104000
     17 C14         -3.0260     0.6480     0.0770 ca         1 0HD      -0.054000
     18 C16         -5.2580    -0.3110    -0.1620 ca         1 0HD      -0.063200
     19 N17         -6.5020     0.1760    -0.3900 na         1 0HD      -0.062400
     20 N18         -6.5070     1.5020    -0.5190 nc         1 0HD      -0.515100
     21 C19         -5.2670     1.9030    -0.3770 cd         1 0HD       0.351800
     22 H1           7.2990     1.0430     1.8650 ha         1 0HD       0.113500
     23 H2          -1.0170    -1.8510     0.8710 hn         1 0HD       0.142000
     24 H3          -5.4220    -2.4710     0.0340 ha         1 0HD       0.120000
     25 H4          -3.0130    -2.7320     0.3980 ha         1 0HD       0.107000
     26 H5           1.0830    -1.5400     1.1130 hn         1 0HD       0.301500
     27 H6           2.3170     0.4670    -0.6600 h1         1 0HD       0.058200
     28 H7           2.5280     0.6440     1.0770 h1         1 0HD       0.058200
     29 H8           3.5020    -1.6750     1.1640 hc         1 0HD       0.050200
     30 H9           3.3190    -1.7990    -0.5800 hc         1 0HD       0.050200
     31 H10          4.7720    -0.4990    -2.0880 ha         1 0HD       0.111500
     32 H11          6.9090     0.6880    -2.3840 ha         1 0HD       0.113500
     33 H12          8.1830     1.4700    -0.4110 ha         1 0HD       0.113000
     34 H13          5.1630    -0.1460     2.1570 ha         1 0HD       0.111500
     35 H14         -2.3830     1.5130     0.1070 ha         1 0HD       0.151000
     36 H15         -7.3640    -0.3370    -0.4710 hn         1 0HD       0.375000
     37 H16         -5.0170     2.9510    -0.4400 h4         1 0HD       0.052800
@<TRIPOS>BOND
     1     1    15 ar  
     2     1    16 ar  
     3     1    22 1   
     4     2     3 1   
     5     2     8 1   
     6     2    23 1   
     7     3     6 ar  
     8     3    17 ar  
     9     4    17 ar  
    10     4    18 ar  
    11     4    21 1   
    12     5     6 ar  
    13     5    18 ar  
    14     5    24 1   
    15     6    25 1   
    16     7     8 2   
    17     8     9 1   
    18     9    10 1   
    19     9    26 1   
    20    10    11 1   
    21    10    27 1   
    22    10    28 1   
    23    11    12 1   
    24    11    29 1   
    25    11    30 1   
    26    12    13 ar  
    27    12    16 ar  
    28    13    14 ar  
    29    13    31 1   
    30    14    15 ar  
    31    14    32 1   
    32    15    33 1   
    33    16    34 1   
    34    17    35 1   
    35    18    19 1   
    36    19    20 1   
    37    19    36 1   
    38    20    21 2   
    39    21    37 1   
@<TRIPOS>SUBSTRUCTURE
     1 0HD         1 TEMP              0 ****  ****    0 ROOT
