@<TRIPOS>MOLECULE
0HG
   49    49     1     0     0
SMALL
bcc


@<TRIPOS>ATOM
      1 N           20.6150    -1.8260    11.4560 nz         1 0HG      -0.828600
      2 CA          20.6570    -2.1080     9.9920 c3         1 0HG      -0.037500
      3 C           19.2880    -2.7370     9.6130 c          1 0HG       0.927600
      4 O           18.9430    -2.6170     8.4320 o          1 0HG      -0.769800
      5 CB          21.8270    -3.0490     9.7100 c3         1 0HG      -0.060400
      6 CG          22.0320    -3.2910     8.2250 c3         1 0HG      -0.154400
      7 CD          23.2670    -4.1200     7.9310 c          1 0HG       0.686100
      8 OE1         24.0360    -4.5000     8.8020 o          1 0HG      -0.643100
      9 OXT         18.7060    -3.3260    10.5460 o          1 0HG      -0.769800
     10 CA1         24.5090    -5.1850     6.0960 c3         1 0HG       0.023700
     11 C1          25.1530    -4.4530     4.9160 c          1 0HG       0.657100
     12 O1          24.4810    -3.7390     4.1850 o          1 0HG      -0.616100
     13 N1          23.4380    -4.3910     6.6240 ns         1 0HG      -0.538900
     14 CB1         24.0240    -6.5520     5.5950 c3         1 0HG      -0.003300
     15 SG          23.1720    -7.5490     6.8360 ss         1 0HG      -0.346200
     16 BR          29.4440   -10.5410     5.3730 br         1 0HG      -0.112100
     17 C11         25.7120    -8.5570     7.3620 ca         1 0HG      -0.069300
     18 C2          26.9340    -7.8950     7.3190 ca         1 0HG      -0.120500
     19 C3          28.0490    -8.4740     6.7260 ca         1 0HG      -0.103500
     20 C4          27.9330    -9.7360     6.1710 ca         1 0HG      -0.017900
     21 C5          26.7230   -10.4200     6.1960 ca         1 0HG      -0.103500
     22 C6          25.6230    -9.8230     6.7870 ca         1 0HG      -0.120500
     23 C7          24.5220    -7.9120     8.0030 c3         1 0HG       0.052000
     24 CA2         27.2240    -4.0760     3.6920 c3         1 0HG      -0.060000
     25 C8          27.6830    -2.6350     4.0300 c          1 0HG       0.924600
     26 O2          27.4420    -2.2010     5.1680 o          1 0HG      -0.830300
     27 OXT1        28.2770    -2.0610     3.0970 o          1 0HG      -0.830300
     28 H           21.5320    -1.7810    11.8990 hn         1 0HG       0.437133
     29 H2          20.1390    -0.9470    11.6580 hn         1 0HG       0.437133
     30 HA          20.8080    -1.1570     9.4820 hx         1 0HG       0.086700
     31 HB2         22.7350    -2.6090    10.1300 hc         1 0HG       0.051700
     32 HB3         21.6630    -3.9970    10.2290 hc         1 0HG       0.051700
     33 HG2         21.1670    -3.7930     7.7880 hc         1 0HG       0.085700
     34 HG3         22.1200    -2.3370     7.6950 hc         1 0HG       0.085700
     35 H3          20.0550    -2.5740    11.8860 hn         1 0HG       0.437133
     36 HA1         25.2440    -5.3270     6.8880 h1         1 0HG       0.082700
     37 H1          22.7660    -4.0340     5.9610 hn         1 0HG       0.336500
     38 HB21        23.2960    -6.4130     4.7930 h1         1 0HG       0.082700
     39 HB31        24.8590    -7.1180     5.1780 h1         1 0HG       0.082700
     40 HC2         27.0290    -6.9090     7.7590 ha         1 0HG       0.143500
     41 H31         28.9870    -7.9370     6.7070 ha         1 0HG       0.146500
     42 H5          26.6320   -11.4070     5.7610 ha         1 0HG       0.146500
     43 H6          24.6790   -10.3550     6.7980 ha         1 0HG       0.143500
     44 H71         24.8060    -7.0000     8.5270 h1         1 0HG       0.085200
     45 H72         24.0670    -8.5790     8.7380 h1         1 0HG       0.085200
     46 H4          26.9450    -5.2240     5.4340 hn         1 0HG       0.292500
     47 HA2         28.1060    -4.6920     3.5070 h1         1 0HG       0.037700
     48 HA3         26.6590    -4.0650     2.7580 h1         1 0HG       0.037700
     49 N2          26.4450    -4.7250     4.7160 ns         1 0HG      -0.513900
@<TRIPOS>BOND
     1     1     2 1   
     2     1    28 1   
     3     1    29 1   
     4     1    35 1   
     5     2     3 1   
     6     2     5 1   
     7     2    30 1   
     8     3     4 1   
     9     3     9 1   
    10     5     6 1   
    11     5    31 1   
    12     5    32 1   
    13     6     7 1   
    14     6    33 1   
    15     6    34 1   
    16     7     8 2   
    17     7    13 1   
    18    10    11 1   
    19    10    13 1   
    20    10    14 1   
    21    10    36 1   
    22    11    12 2   
    23    11    49 1   
    24    13    37 1   
    25    14    15 1   
    26    14    38 1   
    27    14    39 1   
    28    15    23 1   
    29    16    20 1   
    30    17    18 ar  
    31    17    22 ar  
    32    17    23 1   
    33    18    19 ar  
    34    18    40 1   
    35    19    20 ar  
    36    19    41 1   
    37    20    21 ar  
    38    21    22 ar  
    39    21    42 1   
    40    22    43 1   
    41    23    44 1   
    42    23    45 1   
    43    24    25 1   
    44    24    47 1   
    45    24    48 1   
    46    24    49 1   
    47    25    26 1   
    48    25    27 1   
    49    46    49 1   
@<TRIPOS>SUBSTRUCTURE
     1 0HG         1 TEMP              0 ****  ****    0 ROOT
