@<TRIPOS>MOLECULE
0HH
   62    61     1     0     0
SMALL
bcc


@<TRIPOS>ATOM
      1 N           14.8350    11.0640    24.3610 n8         1 0HH      -0.860800
      2 CA          14.6100     9.9350    25.2560 c3         1 0HH       0.016500
      3 C           15.6640     8.8210    25.0460 c          1 0HH       0.926600
      4 O           15.9280     8.1280    26.0500 o          1 0HH      -0.836800
      5 CB          13.2000     9.3990    24.9840 c3         1 0HH      -0.037400
      6 CG          12.7490     8.3180    25.9540 c3         1 0HH      -0.149400
      7 CD          11.2980     7.9220    25.7790 c          1 0HH       0.670100
      8 OE1         10.6620     8.1400    24.7570 o          1 0HH      -0.648100
      9 OXT         16.1390     8.6890    23.9020 o          1 0HH      -0.836800
     10 N1          10.7620     7.2840    26.8380 ns         1 0HH      -0.567900
     11 CA1          9.4010     6.8220    26.8790 c3         1 0HH       0.038700
     12 CB1          9.1940     5.5430    26.0640 c3         1 0HH       0.003700
     13 SG          10.2260     4.1910    26.7110 ss         1 0HH      -0.317200
     14 C1           9.0150     6.6100    28.3460 c          1 0HH       0.669100
     15 O1           9.8530     6.6410    29.2360 o          1 0HH      -0.605100
     16 C11          9.1340     2.7640    26.4250 c3         1 0HH       0.005700
     17 C2           7.9200     2.6850    27.3380 c3         1 0HH      -0.066400
     18 C3           8.2480     2.5170    28.8140 c3         1 0HH      -0.078400
     19 C4           6.9950     2.3820    29.6720 c3         1 0HH      -0.069400
     20 C5           7.2700     2.3210    31.1710 c3         1 0HH      -0.074400
     21 C6           8.1490     1.1540    31.6210 c3         1 0HH      -0.072400
     22 C7           7.6530    -0.2270    31.2000 c3         1 0HH      -0.072400
     23 C8           6.2580    -0.5720    31.7090 c3         1 0HH      -0.077400
     24 C9           5.8330    -1.9850    31.3370 c3         1 0HH      -0.087100
     25 N2           7.7210     6.3490    28.5530 ns         1 0HH      -0.528900
     26 CA2          7.1630     6.2440    29.8780 c3         1 0HH      -0.054000
     27 CC           6.9740     7.5910    30.6190 c          1 0HH       0.923600
     28 O2           6.5540     7.4750    31.7860 o          1 0HH      -0.834300
     29 OXT1         7.2340     8.6330    29.9970 o          1 0HH      -0.834300
     30 H           14.2400    11.8320    24.6490 hn         1 0HH       0.304800
     31 H2          15.7840    11.4010    24.4680 hn         1 0HH       0.304800
     32 HA          14.6540    10.2270    26.3170 h1         1 0HH      -0.000300
     33 HB2         12.5020    10.2410    25.0380 hc         1 0HH       0.035700
     34 HB3         13.1600     9.0320    23.9560 hc         1 0HH       0.035700
     35 HG2         13.3520     7.4150    25.8300 hc         1 0HH       0.074200
     36 HG3         12.9160     8.6390    26.9860 hc         1 0HH       0.074200
     37 H1          11.3010     7.1740    27.6850 hn         1 0HH       0.348500
     38 HA1          8.7440     7.5890    26.4540 h1         1 0HH       0.077700
     39 HB21         8.1470     5.2420    26.1000 h1         1 0HH       0.063700
     40 HB31         9.4400     5.7330    25.0200 h1         1 0HH       0.063700
     41 H11          8.8320     2.7660    25.3770 h1         1 0HH       0.053700
     42 H12          9.7750     1.8910    26.5680 h1         1 0HH       0.053700
     43 H21          7.2870     3.5670    27.2020 hc         1 0HH       0.031200
     44 H22          7.3180     1.8340    27.0020 hc         1 0HH       0.031200
     45 H31          8.8900     1.6380    28.9390 hc         1 0HH       0.054700
     46 H32          8.8340     3.3730    29.1630 hc         1 0HH       0.054700
     47 H41          6.3390     3.2360    29.4760 hc         1 0HH       0.031700
     48 H42          6.4320     1.4980    29.3550 hc         1 0HH       0.031700
     49 H51          7.7450     3.2570    31.4810 hc         1 0HH       0.049200
     50 H52          6.3150     2.2840    31.7040 hc         1 0HH       0.049200
     51 H61          9.1660     1.2950    31.2410 hc         1 0HH       0.037200
     52 H62          8.2350     1.1840    32.7120 hc         1 0HH       0.037200
     53 H71          7.6710    -0.3150    30.1080 hc         1 0HH       0.030700
     54 H72          8.3600    -0.9780    31.5670 hc         1 0HH       0.030700
     55 H81          6.2310    -0.4540    32.7970 hc         1 0HH       0.039200
     56 H82          5.5300     0.1390    31.3100 hc         1 0HH       0.039200
     57 H91          4.8330    -2.2150    31.7080 hc         1 0HH       0.023700
     58 H92          5.8220    -2.1190    30.2530 hc         1 0HH       0.023700
     59 H93          6.5180    -2.7270    31.7520 hc         1 0HH       0.023700
     60 H3           7.0780     6.4820    27.7890 hn         1 0HH       0.287500
     61 HA2          6.1930     5.7510    29.7880 h1         1 0HH       0.029200
     62 HA3          7.7830     5.5810    30.4840 h1         1 0HH       0.029200
@<TRIPOS>BOND
     1     1     2 1   
     2     1    30 1   
     3     1    31 1   
     4     2     3 1   
     5     2     5 1   
     6     2    32 1   
     7     3     4 1   
     8     3     9 1   
     9     5     6 1   
    10     5    33 1   
    11     5    34 1   
    12     6     7 1   
    13     6    35 1   
    14     6    36 1   
    15     7     8 2   
    16     7    10 1   
    17    10    11 1   
    18    10    37 1   
    19    11    12 1   
    20    11    14 1   
    21    11    38 1   
    22    12    13 1   
    23    12    39 1   
    24    12    40 1   
    25    13    16 1   
    26    14    15 2   
    27    14    25 1   
    28    16    17 1   
    29    16    41 1   
    30    16    42 1   
    31    17    18 1   
    32    17    43 1   
    33    17    44 1   
    34    18    19 1   
    35    18    45 1   
    36    18    46 1   
    37    19    20 1   
    38    19    47 1   
    39    19    48 1   
    40    20    21 1   
    41    20    49 1   
    42    20    50 1   
    43    21    22 1   
    44    21    51 1   
    45    21    52 1   
    46    22    23 1   
    47    22    53 1   
    48    22    54 1   
    49    23    24 1   
    50    23    55 1   
    51    23    56 1   
    52    24    57 1   
    53    24    58 1   
    54    24    59 1   
    55    25    26 1   
    56    25    60 1   
    57    26    27 1   
    58    26    61 1   
    59    26    62 1   
    60    27    28 1   
    61    27    29 1   
@<TRIPOS>SUBSTRUCTURE
     1 0HH         1 TEMP              0 ****  ****    0 ROOT
