@<TRIPOS>MOLECULE
0HK
   48    52     1     0     0
SMALL
abcg2


@<TRIPOS>ATOM
      1 C28        -15.9470    -7.1350   -43.0250 c          1 0HK       0.562100
      2 O29        -16.6530    -7.9510   -43.5670 o          1 0HK      -0.466000
      3 C31        -16.7370    -5.4360   -41.3810 cc         1 0HK      -0.254300
      4 C32        -15.2900    -4.7330   -43.3070 cc         1 0HK      -0.254300
      5 C34        -16.0840    -5.8220   -40.2420 cd         1 0HK      -0.113000
      6 C35        -16.7150    -5.3490   -39.0580 cd         1 0HK      -0.140500
      7 C36        -17.8330    -4.6100   -39.3190 cc         1 0HK      -0.234500
      8 C41        -14.3480    -4.0690   -42.5750 cd         1 0HK      -0.113000
      9 C42        -13.3980    -3.3840   -43.3840 cd         1 0HK      -0.140500
     10 C43        -13.6340    -3.5450   -44.7200 cc         1 0HK      -0.234500
     11 O10        -10.8800    -6.3500   -42.9950 op         1 0HK      -0.400000
     12 O11        -14.7430    -7.3590   -42.5270 os         1 0HK      -0.440100
     13 O33        -17.5180    -5.4470   -43.6620 oh         1 0HK      -0.631000
     14 S37        -18.1340    -4.4870   -41.0070 ss         1 0HK       0.269000
     15 S44        -15.0190    -4.5240   -45.0060 ss         1 0HK       0.269000
     16 C3         -11.7800    -8.3630   -41.7720 c5         1 0HK       0.134300
     17 C4         -13.1980    -8.8730   -41.4960 c6         1 0HK      -0.110400
     18 C5         -14.1570    -8.6880   -42.6850 c6         1 0HK       0.160300
     19 C6         -13.5110    -8.7800   -44.0830 c6         1 0HK      -0.110400
     20 C7         -12.0620    -8.2800   -44.1140 c5         1 0HK       0.134300
     21 C8         -12.0780    -6.8490   -43.6050 cx         1 0HK       0.080800
     22 C9         -11.9060    -6.9010   -42.1600 cx         1 0HK       0.080800
     23 C30        -16.3850    -5.6590   -42.8380 c3         1 0HK       0.306600
     24 N2         -11.2550    -9.0350   -43.0490 n4         1 0HK      -0.538000
     25 H1         -15.1810    -6.4140   -40.2450 ha         1 0HK       0.131000
     26 H2         -16.3530    -5.5550   -38.0600 ha         1 0HK       0.143500
     27 H3         -18.5060    -4.1440   -38.6170 h4         1 0HK       0.162500
     28 H4         -14.3260    -4.0780   -41.4950 ha         1 0HK       0.131000
     29 H5         -12.5830    -2.7960   -42.9890 ha         1 0HK       0.143500
     30 H6         -13.0900    -3.1260   -45.5510 h4         1 0HK       0.162500
     31 H7         -17.9700    -6.3010   -43.7610 ho         1 0HK       0.481000
     32 H8         -10.8890   -10.9480   -42.2580 hx         1 0HK       0.097700
     33 H9         -12.5060   -10.7920   -42.9620 hx         1 0HK       0.097700
     34 H10        -11.0970   -10.8890   -44.0280 hx         1 0HK       0.097700
     35 H11        -11.0940    -8.5870   -40.9590 hx         1 0HK       0.123700
     36 H12        -13.5950    -8.3250   -40.6420 hc         1 0HK       0.097700
     37 H13        -13.1740    -9.9190   -41.2010 hc         1 0HK       0.097700
     38 H14        -14.9670    -9.4100   -42.6140 h1         1 0HK       0.103700
     39 H15        -14.0880    -8.1770   -44.7830 hc         1 0HK       0.097700
     40 H16        -13.5670    -9.8020   -44.4500 hc         1 0HK       0.097700
     41 H17        -11.5900    -8.4390   -45.0800 hx         1 0HK       0.123700
     42 H18        -12.6940    -6.1260   -44.1180 h1         1 0HK       0.162700
     43 H19        -12.3840    -6.2230   -41.4680 h1         1 0HK       0.162700
     44 H20         -9.2840    -9.3960   -42.4000 hx         1 0HK       0.097700
     45 H21         -9.4960    -9.3340   -44.1690 hx         1 0HK       0.097700
     46 H22         -9.4940    -7.8270   -43.2180 hx         1 0HK       0.097700
     47 C12         -9.7620    -8.8710   -43.2230 c3         1 0HK       0.087900
     48 C1         -11.4670   -10.5240   -43.0740 c3         1 0HK       0.087900
@<TRIPOS>BOND
     1     1     2 2   
     2     1    12 1   
     3     1    23 1   
     4     3     5 2   
     5     3    14 1   
     6     3    23 1   
     7     4     8 2   
     8     4    15 1   
     9     4    23 1   
    10     5     6 1   
    11     5    25 1   
    12     6     7 2   
    13     6    26 1   
    14     7    14 1   
    15     7    27 1   
    16     8     9 1   
    17     8    28 1   
    18     9    10 2   
    19     9    29 1   
    20    10    15 1   
    21    10    30 1   
    22    11    21 1   
    23    11    22 1   
    24    12    18 1   
    25    13    23 1   
    26    13    31 1   
    27    16    17 1   
    28    16    22 1   
    29    16    24 1   
    30    16    35 1   
    31    17    18 1   
    32    17    36 1   
    33    17    37 1   
    34    18    19 1   
    35    18    38 1   
    36    19    20 1   
    37    19    39 1   
    38    19    40 1   
    39    20    21 1   
    40    20    24 1   
    41    20    41 1   
    42    21    22 1   
    43    21    42 1   
    44    22    43 1   
    45    24    47 1   
    46    24    48 1   
    47    32    48 1   
    48    33    48 1   
    49    34    48 1   
    50    44    47 1   
    51    45    47 1   
    52    46    47 1   
@<TRIPOS>SUBSTRUCTURE
     1 0HK         1 TEMP              0 ****  ****    0 ROOT
