@<TRIPOS>MOLECULE
0HK
   48    52     1     0     0
SMALL
No Charge or Current Charge


@<TRIPOS>ATOM
      1 C28        -15.9610    -7.1540   -43.0520 c          1 0HK       0.562100
      2 O29        -16.6460    -8.0040   -43.6140 o          1 0HK      -0.466000
      3 C31        -16.8040    -5.3520   -41.4200 cc         1 0HK      -0.254300
      4 C32        -15.2910    -4.7220   -43.3120 cc         1 0HK      -0.254300
      5 C34        -16.7990    -6.1890   -40.3260 cd         1 0HK      -0.113000
      6 C35        -17.2400    -5.5660   -39.1290 cd         1 0HK      -0.140500
      7 C36        -17.5880    -4.2500   -39.2920 cc         1 0HK      -0.234500
      8 C41        -14.3290    -4.0950   -42.5540 cd         1 0HK      -0.113000
      9 C42        -13.4040    -3.3370   -43.3170 cd         1 0HK      -0.140500
     10 C43        -13.6450    -3.3770   -44.6660 cc         1 0HK      -0.234500
     11 O10        -10.8630    -6.2640   -43.1850 op         1 0HK      -0.400000
     12 O11        -14.7420    -7.4250   -42.4720 os         1 0HK      -0.440100
     13 O33        -17.5600    -5.3630   -43.6520 oh         1 0HK      -0.631000
     14 S37        -17.3730    -3.7430   -40.9630 ss         1 0HK       0.269000
     15 S44        -15.0520    -4.3720   -45.0260 ss         1 0HK       0.269000
     16 C3         -11.6660    -8.3200   -41.7990 c5         1 0HK       0.134300
     17 C4         -13.0770    -8.8820   -41.4350 c6         1 0HK      -0.110400
     18 C5         -14.1270    -8.7230   -42.5780 c6         1 0HK       0.160300
     19 C6         -13.5190    -8.9320   -44.0050 c6         1 0HK      -0.110400
     20 C7         -12.0690    -8.3660   -44.1530 c5         1 0HK       0.134300
     21 C8         -12.0620    -6.8660   -43.7340 cx         1 0HK       0.080800
     22 C9         -11.8120    -6.8370   -42.2520 cx         1 0HK       0.080800
     23 C30        -16.4000    -5.6480   -42.8510 c3         1 0HK       0.306600
     24 N2         -11.1320    -9.0460   -43.0880 n4         1 0HK      -0.538000
     25 H1         -16.4870    -7.2290   -40.3610 ha         1 0HK       0.131000
     26 H2         -17.2960    -6.0830   -38.1750 ha         1 0HK       0.143500
     27 H3         -17.9530    -3.5400   -38.5610 h4         1 0HK       0.162500
     28 H4         -14.2710    -4.1810   -41.4720 ha         1 0HK       0.131000
     29 H5         -12.5800    -2.7820   -42.8760 ha         1 0HK       0.143500
     30 H6         -13.1070    -2.9010   -45.4760 h4         1 0HK       0.162500
     31 H7         -18.2340    -6.0270   -43.3950 ho         1 0HK       0.481000
     32 H8         -10.6260   -10.9720   -42.2320 hx         1 0HK       0.097700
     33 H9         -12.2910   -10.8830   -42.8520 hx         1 0HK       0.097700
     34 H10        -10.9280   -11.0070   -43.9890 hx         1 0HK       0.097700
     35 H11        -10.9580    -8.4590   -40.9770 hx         1 0HK       0.123700
     36 H12        -13.4470    -8.3710   -40.5360 hc         1 0HK       0.097700
     37 H13        -12.9980    -9.9360   -41.1420 hc         1 0HK       0.097700
     38 H14        -14.9150    -9.4760   -42.4130 h1         1 0HK       0.103700
     39 H15        -14.1630    -8.4600   -44.7590 hc         1 0HK       0.097700
     40 H16        -13.5330    -9.9980   -44.2630 hc         1 0HK       0.097700
     41 H17        -11.6730    -8.5420   -45.1570 hx         1 0HK       0.123700
     42 H18        -12.7780    -6.1650   -44.1620 h1         1 0HK       0.162700
     43 H19        -12.3580    -6.1190   -41.6390 h1         1 0HK       0.162700
     44 H20         -9.0460    -9.2470   -42.5370 hx         1 0HK       0.097700
     45 H21         -9.3460    -9.2840   -44.2920 hx         1 0HK       0.097700
     46 H22         -9.3910    -7.7440   -43.4130 hx         1 0HK       0.097700
     47 C12         -9.6240    -8.8050   -43.3510 c3         1 0HK       0.087900
     48 C1         -11.2580   -10.5890   -43.0360 c3         1 0HK       0.087900
@<TRIPOS>BOND
     1     1     2 2   
     2     1    12 1   
     3     1    23 1   
     4     3     5 2   
     5     3    14 1   
     6     3    23 1   
     7     4     8 2   
     8     4    15 1   
     9     4    23 1   
    10     5     6 1   
    11     5    25 1   
    12     6     7 2   
    13     6    26 1   
    14     7    14 1   
    15     7    27 1   
    16     8     9 1   
    17     8    28 1   
    18     9    10 2   
    19     9    29 1   
    20    10    15 1   
    21    10    30 1   
    22    11    21 1   
    23    11    22 1   
    24    12    18 1   
    25    13    23 1   
    26    13    31 1   
    27    16    17 1   
    28    16    22 1   
    29    16    24 1   
    30    16    35 1   
    31    17    18 1   
    32    17    36 1   
    33    17    37 1   
    34    18    19 1   
    35    18    38 1   
    36    19    20 1   
    37    19    39 1   
    38    19    40 1   
    39    20    21 1   
    40    20    24 1   
    41    20    41 1   
    42    21    22 1   
    43    21    42 1   
    44    22    43 1   
    45    24    47 1   
    46    24    48 1   
    47    32    48 1   
    48    33    48 1   
    49    34    48 1   
    50    44    47 1   
    51    45    47 1   
    52    46    47 1   
@<TRIPOS>SUBSTRUCTURE
     1 0HK         1 TEMP              0 ****  ****    0 ROOT
