@<TRIPOS>MOLECULE
0HL
   63    67     1     0     0
SMALL
abcg2


@<TRIPOS>ATOM
      1 CAN         -1.1710     0.3850    -0.7660 ca         1 0HL       0.037000
      2 CAS         -2.5540     0.6650    -0.8450 ca         1 0HL      -0.025000
      3 CAY         -3.4990    -0.2010    -0.2700 ca         1 0HL      -0.137000
      4 CBC         -4.8460     0.0490    -0.3890 ca         1 0HL       0.126100
      5 OBG         -5.6800    -0.8480     0.1640 os         1 0HL      -0.348100
      6 CBI         -7.0770    -0.6470     0.0580 c3         1 0HL       0.149900
      7 CBF         -5.2830     1.2080    -1.0750 ca         1 0HL      -0.160000
      8 CBB         -4.3710     2.0690    -1.6250 ca         1 0HL      -0.075000
      9 CAX         -2.9850     1.8260    -1.5360 ca         1 0HL      -0.028000
     10 CAT         -2.0210     2.6810    -2.1190 ca         1 0HL      -0.104000
     11 CAO         -0.6870     2.3940    -2.0420 ca         1 0HL      -0.046000
     12 CAG         -0.2740     1.2320    -1.3520 ca         1 0HL      -0.275500
     13 SAC          1.4500     0.8270    -1.2730 sy         1 0HL       1.190600
     14 OAH          1.5640    -0.5950    -0.9820 o          1 0HL      -0.545500
     15 OAI          2.0560     1.3730    -2.4780 o          1 0HL      -0.545500
     16 N            2.0800     1.6060     0.0210 n3         1 0HL      -0.774500
     17 CAD          2.3080     3.0460    -0.0220 c3         1 0HL       0.303100
     18 CAJ          3.7650     3.3670     0.1100 cc         1 0HL      -0.134300
     19 CAP          4.7680     2.8920    -0.7870 cc         1 0HL      -0.113000
     20 CAU          6.0150     3.3110    -0.4470 cd         1 0HL      -0.245000
     21 SAV          5.9910     4.2840     0.9660 ss         1 0HL       0.200000
     22 CAQ          4.2910     4.1280     1.1100 cd         1 0HL      -0.238000
     23 CA           2.4330     0.8950     1.2360 c5         1 0HL       0.161500
     24 C            1.2640     0.1650     1.8890 c          1 0HL       0.543000
     25 O            0.1750     0.6520     2.1280 o          1 0HL      -0.547000
     26 CB           3.5660    -0.1380     1.1590 c5         1 0HL      -0.094400
     27 CAM          2.9710    -1.4470     1.6980 c5         1 0HL       0.110000
     28 NAK          1.6650    -1.0720     2.2070 n          1 0HL      -0.398800
     29 CAR          0.8450    -1.9760     2.9750 c3         1 0HL       0.184300
     30 CAW         -0.3550    -2.5110     2.2460 cc         1 0HL      -0.133300
     31 CAZ         -0.3890    -2.8760     0.8730 cc         1 0HL      -0.065000
     32 CBA         -1.5450    -2.7570     2.8650 cd         1 0HL      -0.230000
     33 SBE         -2.6990    -3.4450     1.8080 ss         1 0HL       0.225000
     34 CBD         -1.5950    -3.3840     0.4840 cd         1 0HL      -0.289900
     35 CBH         -1.9700    -3.8480    -0.8630 cf         1 0HL       0.682800
     36 NBK         -1.0390    -4.2070    -1.6570 n2         1 0HL      -0.808100
     37 NBJ         -3.3180    -3.8970    -1.1030 nv         1 0HL      -1.081200
     38 H1          -0.8530    -0.5120    -0.2540 ha         1 0HL       0.148000
     39 H2          -3.1560    -1.0710     0.2770 ha         1 0HL       0.134000
     40 H3          -7.3960     0.2730     0.5540 h1         1 0HL       0.041700
     41 H4          -7.4100    -0.6250    -0.9820 h1         1 0HL       0.041700
     42 H5          -7.5460    -1.4920     0.5560 h1         1 0HL       0.041700
     43 H6          -6.3370     1.4310    -1.1750 ha         1 0HL       0.118000
     44 H7          -4.7210     2.9530    -2.1430 ha         1 0HL       0.116000
     45 H8          -2.3510     3.5670    -2.6470 ha         1 0HL       0.114000
     46 H9           0.0330     3.0430    -2.5200 ha         1 0HL       0.129000
     47 H10          1.9250     3.4480    -0.9610 h1         1 0HL       0.062700
     48 H11          1.7360     3.5270     0.7740 h1         1 0HL       0.062700
     49 H12          4.5600     2.2650    -1.6430 ha         1 0HL       0.153000
     50 H13          6.9460     3.1030    -0.9510 h4         1 0HL       0.152000
     51 H14          3.7620     4.6020     1.9230 h4         1 0HL       0.150000
     52 H15          2.7130     1.6840     1.9380 h1         1 0HL       0.085700
     53 H16          3.9490    -0.2540     0.1490 hc         1 0HL       0.064700
     54 H17          4.3990     0.1840     1.7820 hc         1 0HL       0.064700
     55 H18          2.8720    -2.2070     0.9200 h1         1 0HL       0.055700
     56 H19          3.5770    -1.8690     2.5000 h1         1 0HL       0.055700
     57 H20          1.4820    -2.8070     3.2860 h1         1 0HL       0.056700
     58 H21          0.5180    -1.4800     3.8920 h1         1 0HL       0.056700
     59 H22          0.4350    -2.7490     0.1850 ha         1 0HL       0.174000
     60 H23         -1.7970    -2.5780     3.9000 h4         1 0HL       0.150000
     61 H24         -1.4090    -4.4580    -2.5700 hn         1 0HL       0.370400
     62 H25         -3.9160    -3.2140    -0.6640 hn         1 0HL       0.462000
     63 H26         -3.6060    -4.1210    -2.0420 hn         1 0HL       0.462000
@<TRIPOS>BOND
     1     1     2 ar  
     2     1    12 ar  
     3     1    38 1   
     4     2     3 ar  
     5     2     9 ar  
     6     3     4 ar  
     7     3    39 1   
     8     4     5 1   
     9     4     7 ar  
    10     5     6 1   
    11     6    40 1   
    12     6    41 1   
    13     6    42 1   
    14     7     8 ar  
    15     7    43 1   
    16     8     9 ar  
    17     8    44 1   
    18     9    10 ar  
    19    10    11 ar  
    20    10    45 1   
    21    11    12 ar  
    22    11    46 1   
    23    12    13 1   
    24    13    14 2   
    25    13    15 2   
    26    13    16 1   
    27    16    17 1   
    28    16    23 1   
    29    17    18 1   
    30    17    47 1   
    31    17    48 1   
    32    18    19 1   
    33    18    22 2   
    34    19    20 2   
    35    19    49 1   
    36    20    21 1   
    37    20    50 1   
    38    21    22 1   
    39    22    51 1   
    40    23    24 1   
    41    23    26 1   
    42    23    52 1   
    43    24    25 2   
    44    24    28 1   
    45    26    27 1   
    46    26    53 1   
    47    26    54 1   
    48    27    28 1   
    49    27    55 1   
    50    27    56 1   
    51    28    29 1   
    52    29    30 1   
    53    29    57 1   
    54    29    58 1   
    55    30    31 1   
    56    30    32 2   
    57    31    34 2   
    58    31    59 1   
    59    32    33 1   
    60    32    60 1   
    61    33    34 1   
    62    34    35 1   
    63    35    36 2   
    64    35    37 1   
    65    36    61 1   
    66    37    62 1   
    67    37    63 1   
@<TRIPOS>SUBSTRUCTURE
     1 0HL         1 TEMP              0 ****  ****    0 ROOT
