@<TRIPOS>MOLECULE
0HL
   63    67     1     0     0
SMALL
No Charge or Current Charge


@<TRIPOS>ATOM
      1 CAN         -1.9430     1.5130    -0.7950 ca         1 0HL       0.037000
      2 CAS         -3.0440     2.3890    -0.7490 ca         1 0HL      -0.025000
      3 CAY         -4.0460     2.2200     0.2250 ca         1 0HL      -0.137000
      4 CBC         -5.1430     3.0950     0.2780 ca         1 0HL       0.126100
      5 OBG         -6.0910     2.8780     1.2580 os         1 0HL      -0.348100
      6 CBI         -7.2480     3.7220     1.4070 c3         1 0HL       0.149900
      7 CBF         -5.2400     4.1510    -0.6540 ca         1 0HL      -0.160000
      8 CBB         -4.2420     4.3220    -1.6300 ca         1 0HL      -0.075000
      9 CAX         -3.1420     3.4460    -1.6800 ca         1 0HL      -0.028000
     10 CAT         -2.1410     3.6180    -2.6530 ca         1 0HL      -0.104000
     11 CAO         -1.0390     2.7470    -2.6980 ca         1 0HL      -0.046000
     12 CAG         -0.9340     1.6950    -1.7630 ca         1 0HL      -0.275500
     13 SAC          0.4800     0.5710    -1.7930 sy         1 0HL       1.190600
     14 OAH         -0.0200    -0.7260    -1.3280 o          1 0HL      -0.545500
     15 OAI          1.2000     0.7120    -3.0630 o          1 0HL      -0.545500
     16 N            1.5330     1.1620    -0.5690 n3         1 0HL      -0.774500
     17 CAD          1.1540     2.4920    -0.0340 c3         1 0HL       0.303100
     18 CAJ          2.2440     3.1520     0.7810 cc         1 0HL      -0.134300
     19 CAP          3.4730     3.5520     0.1920 cc         1 0HL      -0.113000
     20 CAU          4.3590     4.1300     1.0620 cd         1 0HL      -0.245000
     21 SAV          3.6890     4.2050     2.6970 ss         1 0HL       0.200000
     22 CAQ          2.2000     3.4320     2.1260 cd         1 0HL      -0.238000
     23 CA           2.1520     0.2290     0.4550 c5         1 0HL       0.161500
     24 C            1.1940    -0.5880     1.3670 c          1 0HL       0.543000
     25 O            0.1150    -0.2680     1.8560 o          1 0HL      -0.547000
     26 CB           3.0060    -0.8560    -0.2740 c5         1 0HL      -0.094400
     27 CAM          3.1120    -1.9650     0.8160 c5         1 0HL       0.110000
     28 NAK          1.8330    -1.8180     1.5400 n          1 0HL      -0.398800
     29 CAR          1.2020    -2.9020     2.3120 c3         1 0HL       0.184300
     30 CAW          0.5510    -3.9000     1.3900 cc         1 0HL      -0.133300
     31 CAZ          1.0580    -5.2190     1.2360 cc         1 0HL      -0.065000
     32 CBA         -0.5510    -3.6740     0.6020 cd         1 0HL      -0.230000
     33 SBE         -0.9920    -5.0980    -0.3510 ss         1 0HL       0.225000
     34 CBD          0.3650    -6.0070     0.3460 cd         1 0HL      -0.289900
     35 CBH          0.6700    -7.3900    -0.0050 cf         1 0HL       0.682800
     36 NBK          1.6260    -8.0240     0.5380 n2         1 0HL      -0.808100
     37 NBJ         -0.1000    -7.9740    -0.9110 nv         1 0HL      -1.081200
     38 H1          -1.8690     0.7030    -0.0710 ha         1 0HL       0.148000
     39 H2          -3.9770     1.4090     0.9460 ha         1 0HL       0.134000
     40 H3          -6.9500     4.7580     1.6140 h1         1 0HL       0.041700
     41 H4          -7.8630     3.7060     0.4980 h1         1 0HL       0.041700
     42 H5          -7.8670     3.3730     2.2430 h1         1 0HL       0.041700
     43 H6          -6.0750     4.8450    -0.6380 ha         1 0HL       0.118000
     44 H7          -4.3230     5.1390    -2.3440 ha         1 0HL       0.116000
     45 H8          -2.2120     4.4290    -3.3750 ha         1 0HL       0.114000
     46 H9          -0.2700     2.8970    -3.4540 ha         1 0HL       0.129000
     47 H10          0.9210     3.1860    -0.8520 h1         1 0HL       0.062700
     48 H11          0.2570     2.4100     0.5950 h1         1 0HL       0.062700
     49 H12          3.6780     3.3970    -0.8650 ha         1 0HL       0.153000
     50 H13          5.3520     4.5120     0.8580 h4         1 0HL       0.152000
     51 H14          1.3950     3.2350     2.8230 h4         1 0HL       0.150000
     52 H15          2.8170     0.7630     1.1450 h1         1 0HL       0.085700
     53 H16          2.5240    -1.2700    -1.1630 hc         1 0HL       0.064700
     54 H17          3.9860    -0.4800    -0.5850 hc         1 0HL       0.064700
     55 H18          3.2290    -2.9640     0.3760 h1         1 0HL       0.055700
     56 H19          3.9570    -1.7820     1.4940 h1         1 0HL       0.055700
     57 H20          1.9720    -3.3980     2.9170 h1         1 0HL       0.056700
     58 H21          0.4520    -2.4940     3.0020 h1         1 0HL       0.056700
     59 H22          1.9330    -5.5640     1.7850 ha         1 0HL       0.174000
     60 H23         -1.1270    -2.7610     0.5080 h4         1 0HL       0.150000
     61 H24          1.5470    -9.0080     0.2630 hn         1 0HL       0.370400
     62 H25         -0.7530    -7.4010    -1.4290 hn         1 0HL       0.462000
     63 H26          0.2230    -8.8150    -1.3740 hn         1 0HL       0.462000
@<TRIPOS>BOND
     1     1     2 ar  
     2     1    12 ar  
     3     1    38 1   
     4     2     3 ar  
     5     2     9 ar  
     6     3     4 ar  
     7     3    39 1   
     8     4     5 1   
     9     4     7 ar  
    10     5     6 1   
    11     6    40 1   
    12     6    41 1   
    13     6    42 1   
    14     7     8 ar  
    15     7    43 1   
    16     8     9 ar  
    17     8    44 1   
    18     9    10 ar  
    19    10    11 ar  
    20    10    45 1   
    21    11    12 ar  
    22    11    46 1   
    23    12    13 1   
    24    13    14 2   
    25    13    15 2   
    26    13    16 1   
    27    16    17 1   
    28    16    23 1   
    29    17    18 1   
    30    17    47 1   
    31    17    48 1   
    32    18    19 1   
    33    18    22 2   
    34    19    20 2   
    35    19    49 1   
    36    20    21 1   
    37    20    50 1   
    38    21    22 1   
    39    22    51 1   
    40    23    24 1   
    41    23    26 1   
    42    23    52 1   
    43    24    25 2   
    44    24    28 1   
    45    26    27 1   
    46    26    53 1   
    47    26    54 1   
    48    27    28 1   
    49    27    55 1   
    50    27    56 1   
    51    28    29 1   
    52    29    30 1   
    53    29    57 1   
    54    29    58 1   
    55    30    31 1   
    56    30    32 2   
    57    31    34 2   
    58    31    59 1   
    59    32    33 1   
    60    32    60 1   
    61    33    34 1   
    62    34    35 1   
    63    35    36 2   
    64    35    37 1   
    65    36    61 1   
    66    37    62 1   
    67    37    63 1   
@<TRIPOS>SUBSTRUCTURE
     1 0HL         1 TEMP              0 ****  ****    0 ROOT
