@<TRIPOS>MOLECULE
0HM
   55    58     1     0     0
SMALL
No Charge or Current Charge


@<TRIPOS>ATOM
      1 CAB         -4.8890     0.4650    -0.8470 ca         1 0HM      -0.112500
      2 CAC         -5.7130    -0.0290    -1.8730 ca         1 0HM      -0.107000
      3 CAD         -5.8490    -1.4150    -2.0600 ca         1 0HM      -0.094000
      4 CAE         -5.1660    -2.3050    -1.2160 ca         1 0HM      -0.107000
      5 CAF         -4.3410    -1.8120    -0.1900 ca         1 0HM      -0.112500
      6 CAA         -4.1890    -0.4210    -0.0040 ca         1 0HM      -0.139300
      7 CAL         -3.2860     0.1430     1.0930 c3         1 0HM       0.108900
      8 NAG         -2.1060    -0.6860     1.4040 na         1 0HM      -0.139500
      9 CAK         -1.8540    -1.3090     2.6080 cc         1 0HM      -0.170000
     10 CAJ         -0.6630    -1.9660     2.4440 cd         1 0HM       0.243900
     11 NAI         -0.1770    -1.7760     1.1680 nd         1 0HM      -0.625000
     12 CAH         -1.0570    -1.0020     0.5560 cc         1 0HM       0.305800
     13 CBD         -0.9270    -0.5640    -0.8820 c3         1 0HM       0.025300
     14 NAN         -0.8860     0.9040    -1.0960 na         1 0HM       0.116300
     15 CAM         -1.8410     1.4680    -1.9460 ca         1 0HM      -0.098000
     16 CAQ         -2.2950     2.7820    -1.7550 ca         1 0HM      -0.074000
     17 CAR         -1.7030     3.5800    -0.7640 ca         1 0HM      -0.112000
     18 CAP         -0.6160     3.0820    -0.0210 ca         1 0HM       0.174100
     19 OBE          0.0350     3.9140     0.8470 oh         1 0HM      -0.474100
     20 CAO         -0.1590     1.7600    -0.2380 ca         1 0HM      -0.124900
     21 CAS          1.0890     1.2530     0.4460 c          1 0HM       0.628700
     22 OAU          1.2930     1.4300     1.6420 o          1 0HM      -0.519100
     23 NAT          1.9670     0.5710    -0.3920 ns         1 0HM      -0.105000
     24 CAX          3.1820    -0.1220    -0.1360 ca         1 0HM      -0.055000
     25 CAY          3.5990    -0.5000     1.1590 ca         1 0HM      -0.127000
     26 CAZ          4.8080    -1.1930     1.3430 ca         1 0HM      -0.074500
     27 CAW          3.9880    -0.4670    -1.2370 ca         1 0HM      -0.127000
     28 CAV          5.1980    -1.1590    -1.0530 ca         1 0HM      -0.074500
     29 CBA          5.6170    -1.5240     0.2400 ca         1 0HM      -0.079300
     30 CBB          6.9310    -2.2670     0.4460 c3         1 0HM       0.196100
     31 NBC          6.7190    -3.7220     0.5710 n8         1 0HM      -1.003200
     32 H1          -4.7950     1.5400    -0.7090 ha         1 0HM       0.122000
     33 H2          -6.2460     0.6620    -2.5220 ha         1 0HM       0.130000
     34 H3          -6.4880    -1.7970    -2.8540 ha         1 0HM       0.133000
     35 H4          -5.2760    -3.3790    -1.3560 ha         1 0HM       0.130000
     36 H5          -3.8250    -2.5180     0.4580 ha         1 0HM       0.122000
     37 H6          -2.9410     1.1460     0.8110 h1         1 0HM       0.077700
     38 H7          -3.8810     0.2570     2.0080 h1         1 0HM       0.077700
     39 H8          -2.5110    -1.2430     3.4670 h4         1 0HM       0.177000
     40 H9          -0.1330    -2.5680     3.1730 h4         1 0HM       0.062100
     41 H10         -0.0240    -1.0110    -1.3130 h1         1 0HM       0.111200
     42 H11         -1.7760    -0.9850    -1.4330 h1         1 0HM       0.111200
     43 H12         -2.2760     0.8320    -2.7200 h4         1 0HM       0.191000
     44 H13         -3.0920     3.1840    -2.3800 ha         1 0HM       0.175000
     45 H14         -2.0540     4.6000    -0.6220 ha         1 0HM       0.167000
     46 H15         -0.4120     4.7870     0.8610 ho         1 0HM       0.509000
     47 H16          1.6900     0.5660    -1.3650 hn         1 0HM       0.153000
     48 H17          2.9940    -0.2800     2.0340 ha         1 0HM       0.123000
     49 H18          5.1160    -1.4800     2.3470 ha         1 0HM       0.132500
     50 H19          3.6810    -0.1930    -2.2450 ha         1 0HM       0.123000
     51 H20          5.8100    -1.4110    -1.9170 ha         1 0HM       0.132500
     52 H21          7.6030    -2.0770    -0.4040 h1         1 0HM       0.042200
     53 H22          7.4260    -1.8990     1.3560 h1         1 0HM       0.042200
     54 H23          6.3120    -4.0710    -0.3050 hn         1 0HM       0.404000
     55 H24          7.6320    -4.1890     0.6170 hn         1 0HM       0.404000
@<TRIPOS>BOND
     1     1     2 ar  
     2     1     6 ar  
     3     1    32 1   
     4     2     3 ar  
     5     2    33 1   
     6     3     4 ar  
     7     3    34 1   
     8     4     5 ar  
     9     4    35 1   
    10     5     6 ar  
    11     5    36 1   
    12     6     7 1   
    13     7     8 1   
    14     7    37 1   
    15     7    38 1   
    16     8     9 1   
    17     8    12 1   
    18     9    10 2   
    19     9    39 1   
    20    10    11 1   
    21    10    40 1   
    22    11    12 2   
    23    12    13 1   
    24    13    14 1   
    25    13    41 1   
    26    13    42 1   
    27    14    15 1   
    28    14    20 2   
    29    15    16 ar  
    30    15    43 1   
    31    16    17 ar  
    32    16    44 1   
    33    17    18 ar  
    34    17    45 1   
    35    18    19 1   
    36    18    20 ar  
    37    19    46 1   
    38    20    21 1   
    39    21    22 2   
    40    21    23 1   
    41    23    24 1   
    42    23    47 1   
    43    24    25 ar  
    44    24    27 ar  
    45    25    26 ar  
    46    25    48 1   
    47    26    29 ar  
    48    26    49 1   
    49    27    28 ar  
    50    27    50 1   
    51    28    29 ar  
    52    28    51 1   
    53    29    30 1   
    54    30    31 1   
    55    30    52 1   
    56    30    53 1   
    57    31    54 1   
    58    31    55 1   
@<TRIPOS>SUBSTRUCTURE
     1 0HM         1 TEMP              0 ****  ****    0 ROOT
