@<TRIPOS>MOLECULE
0HM
   55    58     1     0     0
SMALL
abcg2


@<TRIPOS>ATOM
      1 CAB         -4.6470     0.7100     0.0940 ca         1 0HM      -0.112500
      2 CAC         -5.7360     0.6640    -0.7650 ca         1 0HM      -0.107000
      3 CAD         -6.0840    -0.5300    -1.3820 ca         1 0HM      -0.094000
      4 CAE         -5.3470    -1.6780    -1.1230 ca         1 0HM      -0.107000
      5 CAF         -4.2640    -1.6340    -0.2540 ca         1 0HM      -0.112500
      6 CAA         -3.9000    -0.4360     0.3530 ca         1 0HM      -0.139300
      7 CAL         -2.7420    -0.3480     1.3110 c3         1 0HM       0.108900
      8 NAG         -1.6600    -1.2700     1.0240 na         1 0HM      -0.139500
      9 CAK         -1.1090    -2.1150     1.9440 cc         1 0HM      -0.170000
     10 CAJ         -0.0570    -2.7200     1.3200 cd         1 0HM       0.243900
     11 NAI          0.0570    -2.2540     0.0490 nd         1 0HM      -0.625000
     12 CAH         -0.9090    -1.3830    -0.1030 cc         1 0HM       0.305800
     13 CBD         -1.1580    -0.7150    -1.4070 c3         1 0HM       0.025300
     14 NAN         -1.2970     0.7610    -1.3470 na         1 0HM       0.116300
     15 CAM         -2.3390     1.3090    -1.9820 ca         1 0HM      -0.098000
     16 CAQ         -2.4900     2.6780    -2.0200 ca         1 0HM      -0.074000
     17 CAR         -1.5670     3.4860    -1.3950 ca         1 0HM      -0.112000
     18 CAP         -0.4930     2.9000    -0.7270 ca         1 0HM       0.174100
     19 OBE          0.4530     3.5780    -0.0920 oh         1 0HM      -0.474100
     20 CAO         -0.3760     1.5160    -0.7180 ca         1 0HM      -0.124900
     21 CAS          0.7400     0.8920     0.0920 c          1 0HM       0.628700
     22 OAU          0.6330     0.8570     1.3000 o          1 0HM      -0.519100
     23 NAT          1.7810     0.4810    -0.6450 ns         1 0HM      -0.105000
     24 CAX          2.9670    -0.1250    -0.1950 ca         1 0HM      -0.055000
     25 CAY          3.0940    -0.7490     1.0430 ca         1 0HM      -0.127000
     26 CAZ          4.3030    -1.3320     1.3970 ca         1 0HM      -0.074500
     27 CAW          4.0560    -0.1110    -1.0640 ca         1 0HM      -0.127000
     28 CAV          5.2500    -0.7060    -0.6980 ca         1 0HM      -0.074500
     29 CBA          5.4010    -1.3170     0.5440 ca         1 0HM      -0.079300
     30 CBB          6.7280    -1.9100     0.9450 c3         1 0HM       0.196100
     31 NBC          6.5850    -2.9950     1.8980 n8         1 0HM      -1.003200
     32 H1          -4.3720     1.6480     0.5630 ha         1 0HM       0.122000
     33 H2          -6.3040     1.5650    -0.9600 ha         1 0HM       0.130000
     34 H3          -6.9250    -0.5660    -2.0620 ha         1 0HM       0.133000
     35 H4          -5.6140    -2.6130    -1.5970 ha         1 0HM       0.130000
     36 H5          -3.7030    -2.5400    -0.0610 ha         1 0HM       0.122000
     37 H6          -2.3520     0.6720     1.3480 h1         1 0HM       0.077700
     38 H7          -3.0830    -0.5740     2.3210 h1         1 0HM       0.077700
     39 H8          -1.5040    -2.2010     2.9420 h4         1 0HM       0.177000
     40 H9           0.6190    -3.4580     1.7240 h4         1 0HM       0.062100
     41 H10         -0.3290    -0.9520    -2.0700 h1         1 0HM       0.111200
     42 H11         -2.0640    -1.0850    -1.8840 h1         1 0HM       0.111200
     43 H12         -3.0360     0.6380    -2.4590 h4         1 0HM       0.191000
     44 H13         -3.3370     3.0980    -2.5390 ha         1 0HM       0.175000
     45 H14         -1.6750     4.5640    -1.4200 ha         1 0HM       0.167000
     46 H15          0.3050     4.5310    -0.1400 ho         1 0HM       0.509000
     47 H16          1.7500     0.6890    -1.6340 hn         1 0HM       0.153000
     48 H17          2.2650    -0.8010     1.7290 ha         1 0HM       0.123000
     49 H18          4.3850    -1.8170     2.3600 ha         1 0HM       0.132500
     50 H19          3.9680     0.3630    -2.0350 ha         1 0HM       0.123000
     51 H20          6.0790    -0.6900    -1.3950 ha         1 0HM       0.132500
     52 H21          7.2760    -2.1860     0.0330 h1         1 0HM       0.042200
     53 H22          7.3250    -1.1260     1.4210 h1         1 0HM       0.042200
     54 H23          6.1940    -3.8060     1.4360 hn         1 0HM       0.404000
     55 H24          7.5000    -3.2720     2.2270 hn         1 0HM       0.404000
@<TRIPOS>BOND
     1     1     2 ar  
     2     1     6 ar  
     3     1    32 1   
     4     2     3 ar  
     5     2    33 1   
     6     3     4 ar  
     7     3    34 1   
     8     4     5 ar  
     9     4    35 1   
    10     5     6 ar  
    11     5    36 1   
    12     6     7 1   
    13     7     8 1   
    14     7    37 1   
    15     7    38 1   
    16     8     9 1   
    17     8    12 1   
    18     9    10 2   
    19     9    39 1   
    20    10    11 1   
    21    10    40 1   
    22    11    12 2   
    23    12    13 1   
    24    13    14 1   
    25    13    41 1   
    26    13    42 1   
    27    14    15 1   
    28    14    20 2   
    29    15    16 ar  
    30    15    43 1   
    31    16    17 ar  
    32    16    44 1   
    33    17    18 ar  
    34    17    45 1   
    35    18    19 1   
    36    18    20 ar  
    37    19    46 1   
    38    20    21 1   
    39    21    22 2   
    40    21    23 1   
    41    23    24 1   
    42    23    47 1   
    43    24    25 ar  
    44    24    27 ar  
    45    25    26 ar  
    46    25    48 1   
    47    26    29 ar  
    48    26    49 1   
    49    27    28 ar  
    50    27    50 1   
    51    28    29 ar  
    52    28    51 1   
    53    29    30 1   
    54    30    31 1   
    55    30    52 1   
    56    30    53 1   
    57    31    54 1   
    58    31    55 1   
@<TRIPOS>SUBSTRUCTURE
     1 0HM         1 TEMP              0 ****  ****    0 ROOT
