@<TRIPOS>MOLECULE
0HN
   17    18     1     0     0
SMALL
No Charge or Current Charge


@<TRIPOS>ATOM
      1 OAA          3.0040    -1.4080     0.0610 o          1 0HN      -0.718500
      2 CAI          2.6800    -0.2280     0.0590 c          1 0HN       0.714600
      3 OAB          3.4940     0.6830     0.1070 o          1 0HN      -0.718500
      4 CAJ          1.2020     0.1180    -0.0060 ca         1 0HN      -0.134600
      5 CAE          0.2240    -0.9110    -0.0630 ca         1 0HN      -0.062000
      6 CAL         -1.1290    -0.5520    -0.1230 ca         1 0HN       0.009100
      7 OAH         -2.1770    -1.4120    -0.1750 os         1 0HN      -0.360100
      8 CAF         -3.3370    -0.5100    -0.2660 c5         1 0HN       0.377600
      9 OAG         -2.8760     0.8860    -0.1810 os         1 0HN      -0.367100
     10 CAK         -1.5270     0.7530    -0.1260 ca         1 0HN       0.015100
     11 CAD         -0.6030     1.8010    -0.0700 ca         1 0HN      -0.128000
     12 CAC          0.7700     1.4760    -0.0110 ca         1 0HN      -0.093000
     13 H2           0.5060    -1.9610    -0.0600 ha         1 0HN       0.146000
     14 H3          -3.8380    -0.6650    -1.2290 h2         1 0HN       0.039200
     15 H4          -0.9330     2.8370    -0.0710 ha         1 0HN       0.106000
     16 H5           1.4990     2.2830     0.0330 ha         1 0HN       0.133000
     17 H6          -4.0280    -0.7180     0.5590 h2         1 0HN       0.039200
@<TRIPOS>BOND
     1     1     2 1   
     2     2     3 1   
     3     2     4 1   
     4     4     5 ar  
     5     4    12 ar  
     6     5     6 ar  
     7     5    13 1   
     8     6     7 1   
     9     6    10 ar  
    10     7     8 1   
    11     8     9 1   
    12     8    14 1   
    13     8    17 1   
    14     9    10 1   
    15    10    11 ar  
    16    11    12 ar  
    17    11    15 1   
    18    12    16 1   
@<TRIPOS>SUBSTRUCTURE
     1 0HN         1 TEMP              0 ****  ****    0 ROOT
