@<TRIPOS>MOLECULE
0HN
   17    18     1     0     0
SMALL
abcg2


@<TRIPOS>ATOM
      1 OAA          2.9420    -1.4350     0.0210 o          1 0HN      -0.718500
      2 CAI          2.6540    -0.2230     0.0140 c          1 0HN       0.714600
      3 OAB          3.4550     0.7320     0.0240 o          1 0HN      -0.718500
      4 CAJ          1.1710     0.1240    -0.0090 ca         1 0HN      -0.134600
      5 CAE          0.2190    -0.9100    -0.0220 ca         1 0HN      -0.062000
      6 CAL         -1.1040    -0.5540    -0.0520 ca         1 0HN       0.009100
      7 OAH         -2.2010    -1.3580    -0.0440 os         1 0HN      -0.360100
      8 CAF         -3.3100    -0.5080    -0.2870 c5         1 0HN       0.377600
      9 OAG         -2.8660     0.8260    -0.0720 os         1 0HN      -0.367100
     10 CAK         -1.5110     0.7700    -0.0660 ca         1 0HN       0.015100
     11 CAD         -0.6040     1.8010    -0.0500 ca         1 0HN      -0.128000
     12 CAC          0.7500     1.4480    -0.0210 ca         1 0HN      -0.093000
     13 H2           0.5290    -1.9460    -0.0080 ha         1 0HN       0.146000
     14 H3          -3.6500    -0.6220    -1.3230 h2         1 0HN       0.039200
     15 H4          -0.9180     2.8370    -0.0580 ha         1 0HN       0.106000
     16 H5           1.4940     2.2340    -0.0130 ha         1 0HN       0.133000
     17 H6          -4.1180    -0.7440     0.4060 h2         1 0HN       0.039200
@<TRIPOS>BOND
     1     1     2 1   
     2     2     3 1   
     3     2     4 1   
     4     4     5 ar  
     5     4    12 ar  
     6     5     6 ar  
     7     5    13 1   
     8     6     7 1   
     9     6    10 ar  
    10     7     8 1   
    11     8     9 1   
    12     8    14 1   
    13     8    17 1   
    14     9    10 1   
    15    10    11 ar  
    16    11    12 ar  
    17    11    15 1   
    18    12    16 1   
@<TRIPOS>SUBSTRUCTURE
     1 0HN         1 TEMP              0 ****  ****    0 ROOT
