@<TRIPOS>MOLECULE
0HO
   15    16     1     0     0
SMALL
abcg2


@<TRIPOS>ATOM
      1 OAA          3.2040    -1.5460     0.0020 o          1 0HO      -0.711000
      2 CAI          2.9460    -0.3300     0.0200 c          1 0HO       0.714600
      3 OAB          3.7590     0.6130     0.0490 o          1 0HO      -0.711000
      4 CAJ          1.4670     0.0540     0.0070 ca         1 0HO      -0.134600
      5 CAE          0.5070    -0.9150    -0.0170 ca         1 0HO      -0.076000
      6 CAL         -0.8550    -0.5230    -0.0290 ca         1 0HO      -0.063000
      7 NAG         -1.9110    -1.3300    -0.0520 nc         1 0HO      -0.306500
      8 SAH         -3.2250    -0.3920    -0.0590 ss         1 0HO       0.442000
      9 NAF         -2.5270     1.0660    -0.0320 nc         1 0HO      -0.319500
     10 CAK         -1.2150     0.8670    -0.0170 ca         1 0HO      -0.060000
     11 CAD         -0.1980     1.8560     0.0070 ca         1 0HO      -0.145000
     12 CAC          1.0970     1.4380     0.0190 ca         1 0HO      -0.036000
     13 H2           0.7680    -1.9640    -0.0270 ha         1 0HO       0.153000
     14 H3          -0.4580     2.9060     0.0170 ha         1 0HO       0.115000
     15 H4           1.8910     2.1720     0.0380 ha         1 0HO       0.138000
@<TRIPOS>BOND
     1     1     2 1   
     2     2     3 1   
     3     2     4 1   
     4     4     5 ar  
     5     4    12 ar  
     6     5     6 ar  
     7     5    13 1   
     8     6     7 2   
     9     6    10 ar  
    10     7     8 1   
    11     8     9 1   
    12     9    10 2   
    13    10    11 ar  
    14    11    12 ar  
    15    11    14 1   
    16    12    15 1   
@<TRIPOS>SUBSTRUCTURE
     1 0HO         1 TEMP              0 ****  ****    0 ROOT
