@<TRIPOS>MOLECULE
0HO
   15    16     1     0     0
SMALL
No Charge or Current Charge


@<TRIPOS>ATOM
      1 OAA          3.2450    -1.5200     0.0090 o          1 0HO      -0.711000
      2 CAI          2.9710    -0.3280     0.0210 c          1 0HO       0.714600
      3 OAB          3.8240     0.5480     0.0430 o          1 0HO      -0.711000
      4 CAJ          1.5100     0.0810     0.0070 ca         1 0HO      -0.134600
      5 CAE          0.4830    -0.8960    -0.0180 ca         1 0HO      -0.076000
      6 CAL         -0.8650    -0.5010    -0.0300 ca         1 0HO      -0.063000
      7 NAG         -1.9240    -1.3830    -0.0550 nc         1 0HO      -0.306500
      8 SAH         -3.3020    -0.4070    -0.0600 ss         1 0HO       0.442000
      9 NAF         -2.5600     1.1100    -0.0310 nc         1 0HO      -0.319500
     10 CAK         -1.2090     0.8410    -0.0170 ca         1 0HO      -0.060000
     11 CAD         -0.2140     1.8280     0.0080 ca         1 0HO      -0.145000
     12 CAC          1.1420     1.4500     0.0200 ca         1 0HO      -0.036000
     13 H2           0.7290    -1.9560    -0.0280 ha         1 0HO       0.153000
     14 H3          -0.4860     2.8810     0.0170 ha         1 0HO       0.115000
     15 H4           1.9060     2.2240     0.0400 ha         1 0HO       0.138000
@<TRIPOS>BOND
     1     1     2 1   
     2     2     3 1   
     3     2     4 1   
     4     4     5 ar  
     5     4    12 ar  
     6     5     6 ar  
     7     5    13 1   
     8     6     7 2   
     9     6    10 ar  
    10     7     8 1   
    11     8     9 1   
    12     9    10 2   
    13    10    11 ar  
    14    11    12 ar  
    15    11    14 1   
    16    12    15 1   
@<TRIPOS>SUBSTRUCTURE
     1 0HO         1 TEMP              0 ****  ****    0 ROOT
