@<TRIPOS>MOLECULE
0HP
   48    51     1     0     0
SMALL
abcg2


@<TRIPOS>ATOM
      1 C02         18.3340    16.9710    -4.9240 ce         1 0HP       0.692800
      2 C04         18.4980    18.4060    -5.2180 cc         1 0HP      -0.333900
      3 C05         19.0110    18.9930    -6.3430 cd         1 0HP      -0.089000
      4 C06         19.0480    20.4180    -6.2830 cd         1 0HP      -0.062000
      5 C07         18.5430    20.8900    -5.0890 cc         1 0HP      -0.217300
      6 C08         18.3780    22.3160    -4.6330 c3         1 0HP       0.165300
      7 C10         17.7500    22.5330    -2.2600 c          1 0HP       0.597100
      8 C12         16.5840    22.4060    -1.2880 c3         1 0HP      -0.109100
      9 C13         16.1190    20.9660    -1.2460 ca         1 0HP      -0.084300
     10 C14         16.9030    20.0070    -0.6190 ca         1 0HP      -0.110000
     11 C15         16.4990    18.6770    -0.6920 ca         1 0HP      -0.053200
     12 C16         15.3140    18.2770    -1.3700 ca         1 0HP      -0.093800
     13 C17         15.2210    16.8520    -1.2360 cc         1 0HP      -0.239200
     14 C18         16.3110    16.4460    -0.5140 cd         1 0HP      -0.141100
     15 C20         14.5340    19.2630    -1.9880 ca         1 0HP      -0.058000
     16 C21         14.9420    20.5850    -1.9220 ca         1 0HP      -0.144000
     17 C23         19.5480    21.2540    -7.3910 ca         1 0HP      -0.017000
     18 C24         20.3240    22.3960    -7.1620 ca         1 0HP      -0.101000
     19 C25         20.7820    23.1690    -8.2230 ca         1 0HP      -0.110000
     20 C26         20.4780    22.8140    -9.5330 ca         1 0HP      -0.107000
     21 C27         19.7160    21.6750    -9.7750 ca         1 0HP      -0.110000
     22 C28         19.2570    20.9030    -8.7160 ca         1 0HP      -0.101000
     23 N01         18.3780    16.1510    -6.0210 nv         1 0HP      -1.034200
     24 N03         18.1990    16.4620    -3.7480 n2         1 0HP      -0.846100
     25 N09         17.4070    22.4580    -3.5670 ns         1 0HP      -0.511900
     26 N19         17.0810    17.5400    -0.1860 na         1 0HP      -0.233700
     27 O11         18.9130    22.6430    -1.8790 o          1 0HP      -0.598100
     28 S22         18.0230    19.6030    -4.0620 ss         1 0HP       0.265000
     29 H051        19.3890    18.4320    -7.1860 ha         1 0HP       0.139000
     30 H081        19.3230    22.7070    -4.2550 h1         1 0HP       0.077700
     31 H082        18.0820    22.9350    -5.4810 h1         1 0HP       0.077700
     32 H122        16.9370    22.7380    -0.3130 hc         1 0HP       0.073700
     33 H121        15.7660    23.0560    -1.6030 hc         1 0HP       0.073700
     34 H141        17.8170    20.2850    -0.1080 ha         1 0HP       0.126000
     35 H171        14.4480    16.2120    -1.6310 ha         1 0HP       0.207000
     36 H181        16.6120    15.4580    -0.2070 h4         1 0HP       0.218000
     37 H201        13.6240    18.9970    -2.5120 ha         1 0HP       0.116000
     38 H211        14.3480    21.3520    -2.4040 ha         1 0HP       0.105000
     39 H241        20.5940    22.6700    -6.1520 ha         1 0HP       0.114500
     40 H251        21.3850    24.0470    -8.0230 ha         1 0HP       0.114000
     41 H261        20.8350    23.4180   -10.3580 ha         1 0HP       0.114000
     42 H271        19.4740    21.3890   -10.7910 ha         1 0HP       0.114000
     43 H281        18.6540    20.0260    -8.9140 ha         1 0HP       0.114500
     44 H012        18.1370    15.1850    -5.8570 hn         1 0HP       0.471000
     45 H031        18.2760    17.1720    -3.0240 hn         1 0HP       0.388400
     46 H091        16.4350    22.3200    -3.7970 hn         1 0HP       0.318500
     47 H191        17.9370    17.5070     0.3430 hn         1 0HP       0.353000
     48 H011        18.0860    16.5230    -6.9100 hn         1 0HP       0.471000
@<TRIPOS>BOND
     1     1     2 1   
     2     1    23 1   
     3     1    24 2   
     4     2     3 2   
     5     2    28 1   
     6     3     4 1   
     7     3    29 1   
     8     4     5 2   
     9     4    17 1   
    10     5     6 1   
    11     5    28 1   
    12     6    25 1   
    13     6    30 1   
    14     6    31 1   
    15     7     8 1   
    16     7    25 1   
    17     7    27 2   
    18     8     9 1   
    19     8    32 1   
    20     8    33 1   
    21     9    10 ar  
    22     9    16 ar  
    23    10    11 ar  
    24    10    34 1   
    25    11    12 ar  
    26    11    26 1   
    27    12    13 1   
    28    12    15 ar  
    29    13    14 2   
    30    13    35 1   
    31    14    26 1   
    32    14    36 1   
    33    15    16 ar  
    34    15    37 1   
    35    16    38 1   
    36    17    18 ar  
    37    17    22 ar  
    38    18    19 ar  
    39    18    39 1   
    40    19    20 ar  
    41    19    40 1   
    42    20    21 ar  
    43    20    41 1   
    44    21    22 ar  
    45    21    42 1   
    46    22    43 1   
    47    23    44 1   
    48    23    48 1   
    49    24    45 1   
    50    25    46 1   
    51    26    47 1   
@<TRIPOS>SUBSTRUCTURE
     1 0HP         1 TEMP              0 ****  ****    0 ROOT
