@<TRIPOS>MOLECULE
0HP
   48    51     1     0     0
SMALL
No Charge or Current Charge


@<TRIPOS>ATOM
      1 C02         18.1560    16.9600    -5.8140 ce         1 0HP       0.692800
      2 C04         18.4130    18.3830    -5.8750 cc         1 0HP      -0.333900
      3 C05         18.8650    19.1350    -6.9340 cd         1 0HP      -0.089000
      4 C06         19.0400    20.5290    -6.6700 cd         1 0HP      -0.062000
      5 C07         18.7380    20.8360    -5.3520 cc         1 0HP      -0.217300
      6 C08         18.7040    22.1800    -4.6630 c3         1 0HP       0.165300
      7 C10         17.8270    22.1610    -2.3030 c          1 0HP       0.597100
      8 C12         16.5400    22.1490    -1.4740 c3         1 0HP      -0.109100
      9 C13         16.1300    20.7120    -1.1670 ca         1 0HP      -0.084300
     10 C14         16.5540    20.0930     0.0320 ca         1 0HP      -0.110000
     11 C15         16.1730    18.7640     0.2670 ca         1 0HP      -0.053200
     12 C16         15.4140    18.0750    -0.6340 ca         1 0HP      -0.093800
     13 C17         15.2090    16.7640    -0.1010 cc         1 0HP      -0.239200
     14 C18         15.8660    16.7150     1.1230 cd         1 0HP      -0.141100
     15 C20         14.9740    18.6480    -1.8330 ca         1 0HP      -0.058000
     16 C21         15.3420    19.9850    -2.0950 ca         1 0HP      -0.144000
     17 C23         19.6000    21.4580    -7.6880 ca         1 0HP      -0.017000
     18 C24         20.3620    22.5970    -7.3360 ca         1 0HP      -0.101000
     19 C25         20.8840    23.4510    -8.3230 ca         1 0HP      -0.110000
     20 C26         20.6610    23.1800    -9.6810 ca         1 0HP      -0.107000
     21 C27         19.9220    22.0470   -10.0490 ca         1 0HP      -0.110000
     22 C28         19.4020    21.1910    -9.0620 ca         1 0HP      -0.101000
     23 N01         17.9450    16.2900    -6.9520 nv         1 0HP      -1.034200
     24 N03         18.2680    16.2930    -4.7450 n2         1 0HP      -0.846100
     25 N09         17.6400    22.2720    -3.6630 ns         1 0HP      -0.511900
     26 N19         16.4770    17.9720     1.3630 na         1 0HP      -0.233700
     27 O11         18.9360    22.0420    -1.8020 o          1 0HP      -0.598100
     28 S22         18.2360    19.3990    -4.4570 ss         1 0HP       0.265000
     29 H051        19.0970    18.6860    -7.8950 ha         1 0HP       0.139000
     30 H081        19.6770    22.3770    -4.1930 h1         1 0HP       0.077700
     31 H082        18.5230    22.9670    -5.4060 h1         1 0HP       0.077700
     32 H122        16.7150    22.6950    -0.5400 hc         1 0HP       0.073700
     33 H121        15.7330    22.6330    -2.0360 hc         1 0HP       0.073700
     34 H141        17.1650    20.6290     0.7540 ha         1 0HP       0.126000
     35 H171        14.6490    15.9480    -0.5540 ha         1 0HP       0.207000
     36 H181        15.9430    15.8920     1.8320 h4         1 0HP       0.218000
     37 H201        14.3720    18.0820    -2.5400 ha         1 0HP       0.116000
     38 H211        15.0170    20.4540    -3.0210 ha         1 0HP       0.105000
     39 H241        20.6000    22.8110    -6.3000 ha         1 0HP       0.114500
     40 H251        21.4730    24.3190    -8.0330 ha         1 0HP       0.114000
     41 H261        21.0660    23.8410   -10.4440 ha         1 0HP       0.114000
     42 H271        19.7480    21.8310   -11.1010 ha         1 0HP       0.114000
     43 H281        18.8170    20.3320    -9.3790 ha         1 0HP       0.114500
     44 H012        17.5640    15.3630    -6.8110 hn         1 0HP       0.471000
     45 H031        18.5710    16.9370    -4.0060 hn         1 0HP       0.388400
     46 H091        16.6850    22.3590    -3.9870 hn         1 0HP       0.318500
     47 H191        17.0270    18.2380     2.1750 hn         1 0HP       0.353000
     48 H011        17.5370    16.8310    -7.7020 hn         1 0HP       0.471000
@<TRIPOS>BOND
     1     1     2 1   
     2     1    23 1   
     3     1    24 2   
     4     2     3 2   
     5     2    28 1   
     6     3     4 1   
     7     3    29 1   
     8     4     5 2   
     9     4    17 1   
    10     5     6 1   
    11     5    28 1   
    12     6    25 1   
    13     6    30 1   
    14     6    31 1   
    15     7     8 1   
    16     7    25 1   
    17     7    27 2   
    18     8     9 1   
    19     8    32 1   
    20     8    33 1   
    21     9    10 ar  
    22     9    16 ar  
    23    10    11 ar  
    24    10    34 1   
    25    11    12 ar  
    26    11    26 1   
    27    12    13 1   
    28    12    15 ar  
    29    13    14 2   
    30    13    35 1   
    31    14    26 1   
    32    14    36 1   
    33    15    16 ar  
    34    15    37 1   
    35    16    38 1   
    36    17    18 ar  
    37    17    22 ar  
    38    18    19 ar  
    39    18    39 1   
    40    19    20 ar  
    41    19    40 1   
    42    20    21 ar  
    43    20    41 1   
    44    21    22 ar  
    45    21    42 1   
    46    22    43 1   
    47    23    44 1   
    48    23    48 1   
    49    24    45 1   
    50    25    46 1   
    51    26    47 1   
@<TRIPOS>SUBSTRUCTURE
     1 0HP         1 TEMP              0 ****  ****    0 ROOT
