@<TRIPOS>MOLECULE
0HQ
    5     4     1     0     0
SMALL
abcg2


@<TRIPOS>ATOM
      1 C1           1.2280     0.0510    -0.0150 c2         1 0HQ      -0.406000
      2 N1          -0.0530     0.0080     0.0150 n2         1 0HQ       0.152000
      3 N2          -1.1820    -0.0290     0.0430 n1         1 0HQ      -0.085000
      4 H1           1.7000     1.0190    -0.0260 h4         1 0HQ       0.170000
      5 H2           1.7640    -0.8830    -0.0330 h4         1 0HQ       0.170000
@<TRIPOS>BOND
     1     1     2 1   
     2     1     4 1   
     3     1     5 1   
     4     2     3 1   
@<TRIPOS>SUBSTRUCTURE
     1 0HQ         1 TEMP              0 ****  ****    0 ROOT
