@<TRIPOS>MOLECULE
0HQ
    5     4     1     0     0
SMALL
No Charge or Current Charge


@<TRIPOS>ATOM
      1 C1           1.1330    -0.0620    -0.0120 c2         1 0HQ      -0.406000
      2 N1          -0.0940    -0.4360     0.0360 n2         1 0HQ       0.152000
      3 N2          -0.9370     0.4730     0.0250 n1         1 0HQ      -0.085000
      4 H1           1.4200     0.9880    -0.0580 h4         1 0HQ       0.170000
      5 H2           1.9360    -0.7960    -0.0070 h4         1 0HQ       0.170000
@<TRIPOS>BOND
     1     1     2 1   
     2     1     4 1   
     3     1     5 1   
     4     2     3 1   
@<TRIPOS>SUBSTRUCTURE
     1 0HQ         1 TEMP              0 ****  ****    0 ROOT
