@<TRIPOS>MOLECULE
0HT
   85    85     1     0     0
SMALL
No Charge or Current Charge


@<TRIPOS>ATOM
      1 O           33.7750    -8.5330     4.8920 oh         1 0HT      -0.677000
      2 C           35.1640    -8.6500     5.2150 c3         1 0HT       0.174300
      3 CZ          35.5860   -10.1540     5.2210 c3         1 0HT       0.131800
      4 CA          35.8990    -7.8230     4.1130 c3         1 0HT       0.141500
      5 N           35.2220    -8.0560     2.8070 n8         1 0HT      -1.040200
      6 CB          35.9390    -6.3040     4.4380 c3         1 0HT      -0.080400
      7 CG          36.7330    -5.4100     3.4400 c3         1 0HT      -0.062700
      8 CD2         38.2250    -5.8070     3.3330 c3         1 0HT      -0.089600
      9 CD1         36.5920    -3.9160     3.8100 c3         1 0HT      -0.089600
     10 N1          35.1440   -10.8870     4.0040 n7         1 0HT      -0.862400
     11 CA1         35.5250   -12.3330     3.9460 c3         1 0HT       0.111500
     12 C1          37.0830   -12.5600     3.9620 c          1 0HT       0.599100
     13 O1          37.8260   -12.2470     3.0370 o          1 0HT      -0.586100
     14 CB1         34.8410   -13.0290     2.7270 c3         1 0HT      -0.059700
     15 CG1         35.2170   -14.5300     2.6290 c3         1 0HT      -0.096100
     16 CG2         33.2980   -12.8700     2.7380 c3         1 0HT      -0.096100
     17 N2          37.5650   -13.1490     5.1130 ns         1 0HT      -0.499900
     18 CA2         38.9890   -13.4230     5.4000 c3         1 0HT       0.046700
     19 C2          39.0880   -14.5830     6.4360 c          1 0HT       0.603100
     20 O2          38.1920   -14.8430     7.2300 o          1 0HT      -0.602100
     21 CB2         39.7230   -12.1180     5.8520 c3         1 0HT      -0.064700
     22 CG11        41.2690   -12.2900     5.8860 c3         1 0HT      -0.079400
     23 CG21        39.1660   -11.5550     7.1870 c3         1 0HT      -0.089100
     24 CD11        42.0600   -10.9730     6.0390 c3         1 0HT      -0.088100
     25 N3          40.2490   -15.3270     6.3780 ns         1 0HT      -0.484900
     26 CA3         40.4950   -16.5630     7.1560 c3         1 0HT       0.055700
     27 C3          41.9270   -16.5340     7.7530 c          1 0HT       0.572100
     28 CB3         40.2160   -17.8230     6.2950 c3         1 0HT      -0.036100
     29 CG3         38.8310   -17.8120     5.6550 ca         1 0HT      -0.084300
     30 CD12        37.6950   -18.1550     6.4140 ca         1 0HT      -0.097000
     31 CD21        38.6720   -17.4360     4.3050 ca         1 0HT      -0.097000
     32 CE1         36.4160   -18.1220     5.8310 ca         1 0HT      -0.102000
     33 CE2         37.3930   -17.4030     3.7230 ca         1 0HT      -0.102000
     34 CZ1         36.2650   -17.7460     4.4860 ca         1 0HT      -0.099000
     35 O3          42.8470   -17.2560     7.3890 o          1 0HT      -0.486000
     36 CM          43.3220   -15.4120     9.3710 c3         1 0HT       0.148900
     37 OXT         42.0430   -15.5770     8.7310 os         1 0HT      -0.437100
     38 HZA         36.6790   -10.2040     5.3230 h1         1 0HT       0.034200
     39 HZB         35.1600   -10.6270     6.1160 h1         1 0HT       0.034200
     40 HA          36.9300    -8.1950     4.0430 h1         1 0HT       0.037700
     41 HN          35.7980    -7.6480     2.0610 hn         1 0HT       0.421500
     42 HNA         35.2890    -9.0700     2.6230 hn         1 0HT       0.421500
     43 HB          34.9090    -5.9320     4.5040 hc         1 0HT       0.048700
     44 HBA         36.3730    -6.1750     5.4370 hc         1 0HT       0.048700
     45 HG          36.2880    -5.5300     2.4440 hc         1 0HT       0.044700
     46 HD2         38.7580    -5.1270     2.6570 hc         1 0HT       0.033033
     47 HD2A        38.7130    -5.7630     4.3140 hc         1 0HT       0.033033
     48 HD2B        38.3400    -6.8210     2.9340 hc         1 0HT       0.033033
     49 HD1         37.1060    -3.2830     3.0760 hc         1 0HT       0.033033
     50 HD1A        35.5370    -3.6180     3.8310 hc         1 0HT       0.033033
     51 HD1B        37.0250    -3.7150     4.7980 hc         1 0HT       0.033033
     52 H           34.1190   -10.8260     3.9810 hn         1 0HT       0.431000
     53 HA1         35.1310   -12.8240     4.8460 h1         1 0HT       0.021700
     54 HB1         35.2140   -12.5420     1.8170 hc         1 0HT       0.076700
     55 HG11        34.7120   -15.0020     1.7770 hc         1 0HT       0.039033
     56 HG12        36.2950   -14.6650     2.4860 hc         1 0HT       0.039033
     57 HG13        34.9210   -15.0650     3.5400 hc         1 0HT       0.039033
     58 HG21        32.8490   -13.3980     1.8880 hc         1 0HT       0.039033
     59 HG22        32.8700   -13.2830     3.6600 hc         1 0HT       0.039033
     60 HG23        33.0010   -11.8180     2.6610 hc         1 0HT       0.039033
     61 H1          36.8820   -13.3960     5.8210 hn         1 0HT       0.322500
     62 HA2         39.4510   -13.7850     4.4720 h1         1 0HT       0.069700
     63 HB2         39.5160   -11.3630     5.0830 hc         1 0HT       0.050700
     64 HG14        41.5530   -12.9600     6.7070 hc         1 0HT       0.046700
     65 HG15        41.5950   -12.7730     4.9560 hc         1 0HT       0.046700
     66 HG24        39.5730   -10.5590     7.3960 hc         1 0HT       0.041700
     67 HG25        38.0750   -11.4550     7.1510 hc         1 0HT       0.041700
     68 HG26        39.4210   -12.2100     8.0290 hc         1 0HT       0.041700
     69 HD11        43.1360   -11.1660     5.9550 hc         1 0HT       0.034033
     70 HD12        41.7800   -10.2570     5.2570 hc         1 0HT       0.034033
     71 HD13        41.8790   -10.5110     7.0170 hc         1 0HT       0.034033
     72 HN2         40.9390   -15.0450     5.6910 hn         1 0HT       0.320500
     73 HA3         39.8170   -16.5790     8.0190 h1         1 0HT       0.112700
     74 HBC1        40.9830   -17.9020     5.5150 hc         1 0HT       0.063200
     75 HBC2        40.3310   -18.7160     6.9220 hc         1 0HT       0.063200
     76 HD14        37.8020   -18.4410     7.4570 ha         1 0HT       0.107500
     77 HD21        39.5390   -17.1630     3.7080 ha         1 0HT       0.107500
     78 HE1         35.5420   -18.3860     6.4230 ha         1 0HT       0.109500
     79 HE2         37.2780   -17.1120     2.6820 ha         1 0HT       0.109500
     80 HZ          35.2750   -17.7200     4.0350 ha         1 0HT       0.109000
     81 HMC1        43.2700   -14.6180    10.1270 h1         1 0HT       0.049700
     82 HMC2        43.6330   -16.3380     9.8710 h1         1 0HT       0.049700
     83 HMC3        44.0930   -15.1350     8.6400 h1         1 0HT       0.049700
     84 H47         33.8720    -8.2650     3.9360 ho         1 0HT       0.479000
     85 H48         35.3840    -8.2260     6.2050 h1         1 0HT       0.055700
@<TRIPOS>BOND
     1     1     2 1   
     2     1    84 1   
     3     2     3 1   
     4     2     4 1   
     5     2    85 1   
     6     3    10 1   
     7     3    38 1   
     8     3    39 1   
     9     4     5 1   
    10     4     6 1   
    11     4    40 1   
    12     5    41 1   
    13     5    42 1   
    14     6     7 1   
    15     6    43 1   
    16     6    44 1   
    17     7     8 1   
    18     7     9 1   
    19     7    45 1   
    20     8    46 1   
    21     8    47 1   
    22     8    48 1   
    23     9    49 1   
    24     9    50 1   
    25     9    51 1   
    26    10    11 1   
    27    10    52 1   
    28    11    12 1   
    29    11    14 1   
    30    11    53 1   
    31    12    13 2   
    32    12    17 1   
    33    14    15 1   
    34    14    16 1   
    35    14    54 1   
    36    15    55 1   
    37    15    56 1   
    38    15    57 1   
    39    16    58 1   
    40    16    59 1   
    41    16    60 1   
    42    17    18 1   
    43    17    61 1   
    44    18    19 1   
    45    18    21 1   
    46    18    62 1   
    47    19    20 2   
    48    19    25 1   
    49    21    22 1   
    50    21    23 1   
    51    21    63 1   
    52    22    24 1   
    53    22    64 1   
    54    22    65 1   
    55    23    66 1   
    56    23    67 1   
    57    23    68 1   
    58    24    69 1   
    59    24    70 1   
    60    24    71 1   
    61    25    26 1   
    62    25    72 1   
    63    26    27 1   
    64    26    28 1   
    65    26    73 1   
    66    27    35 2   
    67    27    37 1   
    68    28    29 1   
    69    28    74 1   
    70    28    75 1   
    71    29    30 ar  
    72    29    31 ar  
    73    30    32 ar  
    74    30    76 1   
    75    31    33 ar  
    76    31    77 1   
    77    32    34 ar  
    78    32    78 1   
    79    33    34 ar  
    80    33    79 1   
    81    34    80 1   
    82    36    37 1   
    83    36    81 1   
    84    36    82 1   
    85    36    83 1   
@<TRIPOS>SUBSTRUCTURE
     1 0HT         1 TEMP              0 ****  ****    0 ROOT
