@<TRIPOS>MOLECULE
0HT
   85    85     1     0     0
SMALL
bcc


@<TRIPOS>ATOM
      1 O           34.0230    -8.1710     4.4260 oh         1 0HT      -0.614800
      2 C           35.3850    -8.4480     4.6650 c3         1 0HT       0.151100
      3 CZ          35.5530    -9.6590     5.5770 c3         1 0HT       0.131800
      4 CA          36.1250    -8.6030     3.3170 c3         1 0HT       0.141500
      5 N           35.2570    -9.3650     2.4260 n8         1 0HT      -0.929800
      6 CB          36.4290    -7.2290     2.7220 c3         1 0HT      -0.080400
      7 CG          37.1330    -7.2150     1.3620 c3         1 0HT      -0.062700
      8 CD2         38.4490    -7.9870     1.3850 c3         1 0HT      -0.089600
      9 CD1         37.3680    -5.7730     0.9220 c3         1 0HT      -0.089600
     10 N1          34.9960   -10.8660     4.9930 n7         1 0HT      -0.807200
     11 CA1         35.2080   -12.0560     5.7910 c3         1 0HT       0.111500
     12 C1          36.6910   -12.4150     5.7030 c          1 0HT       0.666100
     13 O1          37.2440   -12.6290     4.6350 o          1 0HT      -0.586100
     14 CB1         34.3580   -13.2330     5.2840 c3         1 0HT      -0.059700
     15 CG1         34.6510   -14.5000     6.0820 c3         1 0HT      -0.096100
     16 CG2         32.8650   -12.9180     5.3540 c3         1 0HT      -0.096100
     17 N2          37.3480   -12.4670     6.8720 ns         1 0HT      -0.566900
     18 CA2         38.7510   -12.7870     6.9430 c3         1 0HT       0.046700
     19 C2          38.9620   -14.2740     6.6490 c          1 0HT       0.670100
     20 O2          38.1900   -15.1210     7.0670 o          1 0HT      -0.602100
     21 CB2         39.3240   -12.3620     8.3120 c3         1 0HT      -0.064700
     22 CG11        40.8540   -12.3740     8.2930 c3         1 0HT      -0.079400
     23 CG21        38.7700   -13.1650     9.4870 c3         1 0HT      -0.089100
     24 CD11        41.4810   -11.6890     9.4990 c3         1 0HT      -0.088100
     25 N3          40.0570   -14.5650     5.9220 ns         1 0HT      -0.551900
     26 CA3         40.4410   -15.9050     5.5740 c3         1 0HT       0.055700
     27 C3          41.7320   -16.3700     6.2410 c          1 0HT       0.621100
     28 CB3         40.5480   -16.0960     4.0540 c3         1 0HT      -0.036100
     29 CG3         39.2730   -15.7690     3.3250 ca         1 0HT      -0.084300
     30 CD12        38.0870   -16.4440     3.6090 ca         1 0HT      -0.115000
     31 CD21        39.2630   -14.8070     2.3200 ca         1 0HT      -0.115000
     32 CE1         36.9230   -16.1620     2.9070 ca         1 0HT      -0.120000
     33 CE2         38.1030   -14.5270     1.6080 ca         1 0HT      -0.120000
     34 CZ1         36.9270   -15.2030     1.9010 ca         1 0HT      -0.117000
     35 O3          42.2540   -17.4230     5.9750 o          1 0HT      -0.535000
     36 CM          43.3940   -15.8700     7.8280 c3         1 0HT       0.125700
     37 OXT         42.1950   -15.5200     7.1350 os         1 0HT      -0.413900
     38 HZA         36.6240    -9.7960     5.7510 h1         1 0HT       0.034200
     39 HZB         35.1110    -9.4350     6.5610 h1         1 0HT       0.034200
     40 HA          37.0760    -9.1140     3.5180 h1         1 0HT       0.037700
     41 HN          35.5880    -9.3320     1.4720 hn         1 0HT       0.366300
     42 HNA         35.2510   -10.3360     2.7150 hn         1 0HT       0.366300
     43 HB          35.4940    -6.6650     2.6440 hc         1 0HT       0.048700
     44 HBA         37.0580    -6.6860     3.4370 hc         1 0HT       0.048700
     45 HG          36.4790    -7.6760     0.6140 hc         1 0HT       0.044700
     46 HD2         38.9590    -7.9160     0.4230 hc         1 0HT       0.033033
     47 HD2A        39.1210    -7.5860     2.1480 hc         1 0HT       0.033033
     48 HD2B        38.3020    -9.0480     1.5970 hc         1 0HT       0.033033
     49 HD1         37.8230    -5.7300    -0.0680 hc         1 0HT       0.033033
     50 HD1A        36.4340    -5.2100     0.8850 hc         1 0HT       0.033033
     51 HD1B        38.0370    -5.2580     1.6170 hc         1 0HT       0.033033
     52 H           34.0020   -10.7230     4.8680 hn         1 0HT       0.375800
     53 HA1         34.9400   -11.8900     6.8500 h1         1 0HT       0.021700
     54 HB1         34.6290   -13.4070     4.2370 hc         1 0HT       0.076700
     55 HG11        34.0120   -15.3160     5.7440 hc         1 0HT       0.039033
     56 HG12        35.6830   -14.8360     5.9790 hc         1 0HT       0.039033
     57 HG13        34.4540   -14.3470     7.1460 hc         1 0HT       0.039033
     58 HG21        32.2830   -13.7900     5.0550 hc         1 0HT       0.039033
     59 HG22        32.5680   -12.6560     6.3720 hc         1 0HT       0.039033
     60 HG23        32.5640   -12.1030     4.6940 hc         1 0HT       0.039033
     61 H1          36.8380   -12.2960     7.7240 hn         1 0HT       0.322500
     62 HA2         39.2700   -12.1980     6.1800 h1         1 0HT       0.069700
     63 HB2         39.0070   -11.3190     8.4300 hc         1 0HT       0.050700
     64 HG14        41.2130   -13.4040     8.2340 hc         1 0HT       0.046700
     65 HG15        41.2030   -11.8760     7.3830 hc         1 0HT       0.046700
     66 HG24        39.0410   -12.6900    10.4290 hc         1 0HT       0.041700
     67 HG25        37.6820   -13.2390     9.4770 hc         1 0HT       0.041700
     68 HG26        39.1700   -14.1790     9.5020 hc         1 0HT       0.041700
     69 HD11        42.5660   -11.6520     9.3990 hc         1 0HT       0.034033
     70 HD12        41.1240   -10.6630     9.6020 hc         1 0HT       0.034033
     71 HD13        41.2610   -12.2120    10.4300 hc         1 0HT       0.034033
     72 HN2         40.6240   -13.8050     5.5770 hn         1 0HT       0.320500
     73 HA3         39.6630   -16.5690     5.9570 h1         1 0HT       0.112700
     74 HBC1        41.3610   -15.4760     3.6670 hc         1 0HT       0.062700
     75 HBC2        40.8270   -17.1330     3.8610 hc         1 0HT       0.062700
     76 HD14        38.0670   -17.2080     4.3780 ha         1 0HT       0.125500
     77 HD21        40.1760   -14.2710     2.0880 ha         1 0HT       0.125500
     78 HE1         36.0120   -16.6970     3.1430 ha         1 0HT       0.127500
     79 HE2         38.1180   -13.7760     0.8280 ha         1 0HT       0.127500
     80 HZ          36.0200   -14.9870     1.3520 ha         1 0HT       0.127000
     81 HMC1        43.6090   -15.0340     8.4870 h1         1 0HT       0.049700
     82 HMC2        43.2580   -16.7740     8.4200 h1         1 0HT       0.049700
     83 HMC3        44.2240   -16.0120     7.1360 h1         1 0HT       0.049700
     84 H47         33.8680    -8.5320     3.5330 ho         1 0HT       0.440000
     85 H48         35.8230    -7.5960     5.1990 h1         1 0HT       0.055700
@<TRIPOS>BOND
     1     1     2 1   
     2     1    84 1   
     3     2     3 1   
     4     2     4 1   
     5     2    85 1   
     6     3    10 1   
     7     3    38 1   
     8     3    39 1   
     9     4     5 1   
    10     4     6 1   
    11     4    40 1   
    12     5    41 1   
    13     5    42 1   
    14     6     7 1   
    15     6    43 1   
    16     6    44 1   
    17     7     8 1   
    18     7     9 1   
    19     7    45 1   
    20     8    46 1   
    21     8    47 1   
    22     8    48 1   
    23     9    49 1   
    24     9    50 1   
    25     9    51 1   
    26    10    11 1   
    27    10    52 1   
    28    11    12 1   
    29    11    14 1   
    30    11    53 1   
    31    12    13 2   
    32    12    17 1   
    33    14    15 1   
    34    14    16 1   
    35    14    54 1   
    36    15    55 1   
    37    15    56 1   
    38    15    57 1   
    39    16    58 1   
    40    16    59 1   
    41    16    60 1   
    42    17    18 1   
    43    17    61 1   
    44    18    19 1   
    45    18    21 1   
    46    18    62 1   
    47    19    20 2   
    48    19    25 1   
    49    21    22 1   
    50    21    23 1   
    51    21    63 1   
    52    22    24 1   
    53    22    64 1   
    54    22    65 1   
    55    23    66 1   
    56    23    67 1   
    57    23    68 1   
    58    24    69 1   
    59    24    70 1   
    60    24    71 1   
    61    25    26 1   
    62    25    72 1   
    63    26    27 1   
    64    26    28 1   
    65    26    73 1   
    66    27    35 2   
    67    27    37 1   
    68    28    29 1   
    69    28    74 1   
    70    28    75 1   
    71    29    30 ar  
    72    29    31 ar  
    73    30    32 ar  
    74    30    76 1   
    75    31    33 ar  
    76    31    77 1   
    77    32    34 ar  
    78    32    78 1   
    79    33    34 ar  
    80    33    79 1   
    81    34    80 1   
    82    36    37 1   
    83    36    81 1   
    84    36    82 1   
    85    36    83 1   
@<TRIPOS>SUBSTRUCTURE
     1 0HT         1 TEMP              0 ****  ****    0 ROOT
