@<TRIPOS>MOLECULE
0HV
   34    36     1     0     0
SMALL
No Charge or Current Charge


@<TRIPOS>ATOM
      1 C01          4.7700     0.9320    -0.3300 ca         1 0HV      -0.085000
      2 C02          4.2180     2.0600    -0.9590 ca         1 0HV      -0.128000
      3 C03          2.8240     2.2190    -1.0230 ca         1 0HV      -0.163000
      4 C04          1.9750     1.2490    -0.4700 ca         1 0HV       0.214000
      5 C05          2.5310     0.1270     0.1750 ca         1 0HV      -0.093000
      6 C06          3.9340    -0.0510     0.2510 ca         1 0HV      -0.119600
      7 N07          0.5940     1.4510    -0.5420 nu         1 0HV      -0.954000
      8 C08         -0.5140     0.5980    -0.4490 ca         1 0HV       0.411000
      9 C09         -0.3890    -0.7230    -0.8970 ca         1 0HV      -0.229000
     10 C10         -1.4770    -1.6010    -0.8550 ca         1 0HV       0.038000
     11 C11         -2.7220    -1.1600    -0.3720 ca         1 0HV      -0.270200
     12 C12         -2.8740     0.1740     0.0880 ca         1 0HV       0.064000
     13 C13         -1.7630     1.0600     0.0420 ca         1 0HV      -0.110000
     14 C14         -4.1050     0.6380     0.6120 ca         1 0HV      -0.112000
     15 C15         -4.2420     1.9580     1.0650 ca         1 0HV      -0.092000
     16 C16         -3.1510     2.8340     1.0110 ca         1 0HV      -0.135000
     17 C17         -1.9190     2.3900     0.5090 ca         1 0HV      -0.082000
     18 C18          4.5270    -1.2660     0.9460 c          1 0HV       0.711600
     19 O19          5.7450    -1.3720     1.0020 o          1 0HV      -0.711000
     20 O20          3.7670    -2.0960     1.4240 o          1 0HV      -0.711000
     21 N21         -3.8470    -2.1290    -0.3810 no         1 0HV       0.707200
     22 O22         -4.8430    -1.8430    -1.0570 o          1 0HV      -0.432000
     23 O23         -3.6300    -3.2560     0.0780 o          1 0HV      -0.432000
     24 H1           5.8530     0.8260    -0.2900 ha         1 0HV       0.135000
     25 H2           4.8710     2.8110    -1.3960 ha         1 0HV       0.093000
     26 H3           2.4080     3.0960    -1.5120 ha         1 0HV       0.088000
     27 H4           1.8720    -0.6020     0.6360 ha         1 0HV       0.144000
     28 H5           0.3310     2.4230    -0.6920 hn         1 0HV       0.487000
     29 H6           0.5540    -1.0700    -1.3070 ha         1 0HV       0.156000
     30 H7          -1.3550    -2.6210    -1.2180 ha         1 0HV       0.142000
     31 H8          -4.9700    -0.0140     0.6840 ha         1 0HV       0.138000
     32 H9          -5.1950     2.3010     1.4630 ha         1 0HV       0.108000
     33 H10         -3.2570     3.8560     1.3680 ha         1 0HV       0.109000
     34 H11         -1.0900     3.0930     0.5010 ha         1 0HV       0.109000
@<TRIPOS>BOND
     1     1     2 ar  
     2     1     6 ar  
     3     1    24 1   
     4     2     3 ar  
     5     2    25 1   
     6     3     4 ar  
     7     3    26 1   
     8     4     5 ar  
     9     4     7 1   
    10     5     6 ar  
    11     5    27 1   
    12     6    18 1   
    13     7     8 1   
    14     7    28 1   
    15     8     9 ar  
    16     8    13 ar  
    17     9    10 ar  
    18     9    29 1   
    19    10    11 ar  
    20    10    30 1   
    21    11    12 ar  
    22    11    21 1   
    23    12    13 ar  
    24    12    14 ar  
    25    13    17 ar  
    26    14    15 ar  
    27    14    31 1   
    28    15    16 ar  
    29    15    32 1   
    30    16    17 ar  
    31    16    33 1   
    32    17    34 1   
    33    18    19 1   
    34    18    20 1   
    35    21    22 1   
    36    21    23 1   
@<TRIPOS>SUBSTRUCTURE
     1 0HV         1 TEMP              0 ****  ****    0 ROOT
