@<TRIPOS>MOLECULE
0HV
   34    36     1     0     0
SMALL
bcc


@<TRIPOS>ATOM
      1 C01          4.6580     0.7450    -0.6250 ca         1 0HV      -0.103000
      2 C02          4.0530     1.7690    -1.3390 ca         1 0HV      -0.146000
      3 C03          2.6970     2.0200    -1.1950 ca         1 0HV      -0.181000
      4 C04          1.9440     1.2470    -0.3160 ca         1 0HV       0.075600
      5 C05          2.5590     0.2360     0.4160 ca         1 0HV      -0.111000
      6 C06          3.9140    -0.0320     0.2610 ca         1 0HV      -0.119600
      7 N07          0.5790     1.5420    -0.1440 nu         1 0HV      -0.622000
      8 C08         -0.4470     0.6530    -0.2030 ca         1 0HV       0.272600
      9 C09         -0.2630    -0.6550    -0.6250 ca         1 0HV      -0.247000
     10 C10         -1.3420    -1.5140    -0.7490 ca         1 0HV       0.020000
     11 C11         -2.6290    -1.1010    -0.4850 ca         1 0HV      -0.270200
     12 C12         -2.8870     0.2160     0.0050 ca         1 0HV       0.064000
     13 C13         -1.7690     1.0830     0.1750 ca         1 0HV      -0.110000
     14 C14         -4.1590     0.6920     0.4070 ca         1 0HV      -0.130000
     15 C15         -4.3150     1.9430     0.9440 ca         1 0HV      -0.110000
     16 C16         -3.2130     2.7880     1.1230 ca         1 0HV      -0.153000
     17 C17         -1.9690     2.3570     0.7510 ca         1 0HV      -0.100000
     18 C18          4.5720    -1.1470     1.0670 c          1 0HV       0.922200
     19 O19          5.7950    -1.3100     0.8940 o          1 0HV      -0.816300
     20 O20          3.8310    -1.7980     1.8270 o          1 0HV      -0.816300
     21 N21         -3.6690    -2.0520    -0.7540 no         1 0HV       0.327200
     22 O22         -4.7750    -1.6530    -1.0600 o          1 0HV      -0.242000
     23 O23         -3.3950    -3.2340    -0.6960 o          1 0HV      -0.242000
     24 H1           5.7140     0.5480    -0.7500 ha         1 0HV       0.153000
     25 H2           4.6370     2.3720    -2.0220 ha         1 0HV       0.111000
     26 H3           2.2220     2.8110    -1.7630 ha         1 0HV       0.106000
     27 H4           1.9860    -0.3460     1.1270 ha         1 0HV       0.162000
     28 H5           0.3450     2.5200    -0.2040 hn         1 0HV       0.431800
     29 H6           0.7150    -1.0110    -0.9130 ha         1 0HV       0.174000
     30 H7          -1.1570    -2.5130    -1.1170 ha         1 0HV       0.160000
     31 H8          -5.0310     0.0690     0.3080 ha         1 0HV       0.156000
     32 H9          -5.3010     2.2710     1.2450 ha         1 0HV       0.126000
     33 H10         -3.3390     3.7650     1.5710 ha         1 0HV       0.127000
     34 H11         -1.1290     3.0100     0.9420 ha         1 0HV       0.127000
@<TRIPOS>BOND
     1     1     2 ar  
     2     1     6 ar  
     3     1    24 1   
     4     2     3 ar  
     5     2    25 1   
     6     3     4 ar  
     7     3    26 1   
     8     4     5 ar  
     9     4     7 1   
    10     5     6 ar  
    11     5    27 1   
    12     6    18 1   
    13     7     8 1   
    14     7    28 1   
    15     8     9 ar  
    16     8    13 ar  
    17     9    10 ar  
    18     9    29 1   
    19    10    11 ar  
    20    10    30 1   
    21    11    12 ar  
    22    11    21 1   
    23    12    13 ar  
    24    12    14 ar  
    25    13    17 ar  
    26    14    15 ar  
    27    14    31 1   
    28    15    16 ar  
    29    15    32 1   
    30    16    17 ar  
    31    16    33 1   
    32    17    34 1   
    33    18    19 1   
    34    18    20 1   
    35    21    22 1   
    36    21    23 1   
@<TRIPOS>SUBSTRUCTURE
     1 0HV         1 TEMP              0 ****  ****    0 ROOT
