@<TRIPOS>MOLECULE
0HW
   51    51     1     0     0
SMALL
No Charge or Current Charge


@<TRIPOS>ATOM
      1 C11         20.7790   -12.1540    34.7140 c3         1 0HW       0.163600
      2 C21         19.4540   -11.6840    35.3490 c3         1 0HW      -0.122100
      3 O5          21.7030   -11.0470    34.6920 os         1 0HW      -0.440100
      4 O1          22.2410   -11.2840    36.9170 o          1 0HW      -0.453000
      5 C1          22.3270   -10.6600    35.8620 c          1 0HW       0.486100
      6 C2          23.2630    -9.3790    35.7030 c          1 0HW       0.527100
      7 O2          24.2950    -9.2570    36.3580 o          1 0HW      -0.445100
      8 C3          22.8150    -8.2720    34.7540 c3         1 0HW      -0.260400
      9 C4          22.0030    -7.3200    35.5940 c          1 0HW       0.617100
     10 O4          20.8390    -7.5470    35.8820 o          1 0HW      -0.593100
     11 N           22.6710    -6.1930    36.0140 ns         1 0HW      -0.469900
     12 CA          22.1150    -5.1480    36.9070 c3         1 0HW       0.032700
     13 C           22.6030    -3.7320    36.4510 c          1 0HW       0.603100
     14 O           23.5440    -3.6070    35.6720 o          1 0HW      -0.607100
     15 CB          22.4440    -5.4360    38.4100 c3         1 0HW      -0.065700
     16 CG1         23.9720    -5.5960    38.6660 c3         1 0HW      -0.075400
     17 CG2         21.6270    -6.6340    38.9560 c3         1 0HW      -0.087100
     18 CD1         24.3710    -5.6660    40.1550 c3         1 0HW      -0.082100
     19 N1          21.9680    -2.5880    36.9880 n          1 0HW      -0.373800
     20 CA1         22.4740    -1.2020    36.7580 c5         1 0HW      -0.030300
     21 C5          23.9660    -0.9320    37.1630 c          1 0HW       0.728000
     22 O3          24.4080    -1.4000    38.2050 o          1 0HW      -0.724500
     23 CB1         21.5250    -0.3770    37.6750 c5         1 0HW      -0.077400
     24 CG          20.1840    -1.1200    37.4690 c5         1 0HW      -0.098400
     25 CD          20.6140    -2.6060    37.5880 c5         1 0HW       0.109000
     26 OXT         24.6660    -0.2640    36.4120 o          1 0HW      -0.724500
     27 H11         21.1880   -13.0120    35.2660 h1         1 0HW       0.059200
     28 H12         20.5740   -12.4860    33.6880 h1         1 0HW       0.059200
     29 H21         18.7070   -12.4840    35.2940 hc         1 0HW       0.049367
     30 H22         19.5880   -11.4190    36.4040 hc         1 0HW       0.049367
     31 H23         19.0600   -10.8110    34.8150 hc         1 0HW       0.049367
     32 H2          23.7020    -7.7680    34.3550 hc         1 0HW       0.095200
     33 H31         22.1500    -8.6800    33.9860 hc         1 0HW       0.095200
     34 H           23.6220    -6.0750    35.6850 hn         1 0HW       0.315500
     35 HA          21.0250    -5.1480    36.7860 h1         1 0HW       0.068700
     36 HB          22.1190    -4.5630    38.9870 hc         1 0HW       0.075700
     37 HG12        24.3420    -6.4980    38.1620 hc         1 0HW       0.054700
     38 HG13        24.5040    -4.7480    38.2160 hc         1 0HW       0.054700
     39 HG21        21.7010    -6.6970    40.0480 hc         1 0HW       0.026367
     40 HG22        20.5650    -6.5250    38.7060 hc         1 0HW       0.026367
     41 HG23        21.9850    -7.5810    38.5360 hc         1 0HW       0.026367
     42 HD11        25.4630    -5.6780    40.2540 hc         1 0HW       0.027700
     43 HD12        23.9890    -4.7950    40.7020 hc         1 0HW       0.027700
     44 HD13        23.9820    -6.5740    40.6290 hc         1 0HW       0.027700
     45 HA1         22.3440    -0.9240    35.7040 h1         1 0HW       0.055700
     46 HB2         21.8360    -0.4160    38.7260 hc         1 0HW       0.046700
     47 HB3         21.4750     0.6790    37.3850 hc         1 0HW       0.046700
     48 HG2         19.4260    -0.8440    38.2100 hc         1 0HW       0.032200
     49 HG3         19.7660    -0.9100    36.4770 hc         1 0HW       0.032200
     50 HD2         19.9220    -3.2680    37.0520 h1         1 0HW       0.030200
     51 HD3         20.6580    -2.9170    38.6400 h1         1 0HW       0.030200
@<TRIPOS>BOND
     1     1     2 1   
     2     1     3 1   
     3     1    27 1   
     4     1    28 1   
     5     2    29 1   
     6     2    30 1   
     7     2    31 1   
     8     3     5 1   
     9     4     5 2   
    10     5     6 1   
    11     6     7 2   
    12     6     8 1   
    13     8     9 1   
    14     8    32 1   
    15     8    33 1   
    16     9    10 2   
    17     9    11 1   
    18    11    12 1   
    19    11    34 1   
    20    12    13 1   
    21    12    15 1   
    22    12    35 1   
    23    13    14 2   
    24    13    19 1   
    25    15    16 1   
    26    15    17 1   
    27    15    36 1   
    28    16    18 1   
    29    16    37 1   
    30    16    38 1   
    31    17    39 1   
    32    17    40 1   
    33    17    41 1   
    34    18    42 1   
    35    18    43 1   
    36    18    44 1   
    37    19    20 1   
    38    19    25 1   
    39    20    21 1   
    40    20    23 1   
    41    20    45 1   
    42    21    22 1   
    43    21    26 1   
    44    23    24 1   
    45    23    46 1   
    46    23    47 1   
    47    24    25 1   
    48    24    48 1   
    49    24    49 1   
    50    25    50 1   
    51    25    51 1   
@<TRIPOS>SUBSTRUCTURE
     1 0HW         1 TEMP              0 ****  ****    0 ROOT
