@<TRIPOS>MOLECULE
0HW
   51    51     1     0     0
SMALL
bcc


@<TRIPOS>ATOM
      1 C11         21.5500   -12.0310    34.0250 c3         1 0HW       0.140400
      2 C21         20.5040   -12.1020    32.9350 c3         1 0HW      -0.122100
      3 O5          21.4510   -10.8020    34.7750 os         1 0HW      -0.416900
      4 O1          19.8190   -11.5760    36.1120 o          1 0HW      -0.502000
      5 C1          20.5700   -10.7170    35.7440 c          1 0HW       0.535100
      6 C2          20.6050    -9.3360    36.4200 c          1 0HW       0.527100
      7 O2          20.1910    -9.2530    37.5430 o          1 0HW      -0.445100
      8 C3          21.1340    -8.1760    35.6240 c3         1 0HW      -0.260400
      9 C4          20.9500    -6.8740    36.3780 c          1 0HW       0.684100
     10 O4          19.8950    -6.2630    36.3550 o          1 0HW      -0.593100
     11 N           22.0150    -6.4870    37.0930 ns         1 0HW      -0.536900
     12 CA          22.0290    -5.2610    37.8470 c3         1 0HW       0.032700
     13 C           22.0790    -4.0550    36.9020 c          1 0HW       0.670100
     14 O           22.4710    -4.1770    35.7480 o          1 0HW      -0.607100
     15 CB          23.2080    -5.2490    38.8410 c3         1 0HW      -0.065700
     16 CG1         24.5780    -5.3330    38.1560 c3         1 0HW      -0.075400
     17 CG2         23.0200    -6.3400    39.8910 c3         1 0HW      -0.087100
     18 CD1         25.7290    -4.9640    39.0830 c3         1 0HW      -0.082100
     19 N1          21.7040    -2.8720    37.4040 n          1 0HW      -0.440800
     20 CA1         21.8850    -1.6580    36.6150 c5         1 0HW      -0.030300
     21 C5          23.3630    -1.3620    36.2740 c          1 0HW       0.938600
     22 O3          24.2180    -1.7580    37.0880 o          1 0HW      -0.829800
     23 CB1         21.3140    -0.5560    37.5220 c5         1 0HW      -0.077400
     24 CG          20.3760    -1.2950    38.4690 c5         1 0HW      -0.098400
     25 CD          21.1170    -2.6010    38.7090 c5         1 0HW       0.109000
     26 OXT         23.5470    -0.6890    35.2430 o          1 0HW      -0.829800
     27 H11         21.4830   -12.8830    34.7030 h1         1 0HW       0.059200
     28 H12         22.5520   -12.0090    33.6020 h1         1 0HW       0.059200
     29 H21         20.6700   -13.0030    32.3450 hc         1 0HW       0.049367
     30 H22         19.4940   -12.1500    33.3400 hc         1 0HW       0.049367
     31 H23         20.5740   -11.2460    32.2650 hc         1 0HW       0.049367
     32 H2          22.1810    -8.3700    35.3730 hc         1 0HW       0.095200
     33 H31         20.5980    -8.1280    34.6720 hc         1 0HW       0.095200
     34 H           22.8780    -6.9950    36.9870 hn         1 0HW       0.315500
     35 HA          21.1080    -5.2220    38.4330 h1         1 0HW       0.068700
     36 HB          23.1650    -4.2840    39.3550 hc         1 0HW       0.075700
     37 HG12        24.7460    -6.3440    37.7680 hc         1 0HW       0.054700
     38 HG13        24.6040    -4.6660    37.2930 hc         1 0HW       0.054700
     39 HG21        23.7780    -6.2720    40.6710 hc         1 0HW       0.026367
     40 HG22        22.0460    -6.2550    40.3760 hc         1 0HW       0.026367
     41 HG23        23.0880    -7.3380    39.4530 hc         1 0HW       0.026367
     42 HD11        26.6800    -4.9990    38.5510 hc         1 0HW       0.027700
     43 HD12        25.6060    -3.9500    39.4700 hc         1 0HW       0.027700
     44 HD13        25.8080    -5.6390    39.9350 hc         1 0HW       0.027700
     45 HA1         21.2990    -1.7290    35.6940 h1         1 0HW       0.055700
     46 HB2         22.1150    -0.0880    38.1010 hc         1 0HW       0.046700
     47 HB3         20.8210     0.2280    36.9490 hc         1 0HW       0.046700
     48 HG2         20.1840    -0.7530    39.3960 hc         1 0HW       0.032200
     49 HG3         19.4150    -1.4930    37.9890 hc         1 0HW       0.032200
     50 HD2         20.4570    -3.4040    39.0350 h1         1 0HW       0.030200
     51 HD3         21.8890    -2.4670    39.4740 h1         1 0HW       0.030200
@<TRIPOS>BOND
     1     1     2 1   
     2     1     3 1   
     3     1    27 1   
     4     1    28 1   
     5     2    29 1   
     6     2    30 1   
     7     2    31 1   
     8     3     5 1   
     9     4     5 2   
    10     5     6 1   
    11     6     7 2   
    12     6     8 1   
    13     8     9 1   
    14     8    32 1   
    15     8    33 1   
    16     9    10 2   
    17     9    11 1   
    18    11    12 1   
    19    11    34 1   
    20    12    13 1   
    21    12    15 1   
    22    12    35 1   
    23    13    14 2   
    24    13    19 1   
    25    15    16 1   
    26    15    17 1   
    27    15    36 1   
    28    16    18 1   
    29    16    37 1   
    30    16    38 1   
    31    17    39 1   
    32    17    40 1   
    33    17    41 1   
    34    18    42 1   
    35    18    43 1   
    36    18    44 1   
    37    19    20 1   
    38    19    25 1   
    39    20    21 1   
    40    20    23 1   
    41    20    45 1   
    42    21    22 1   
    43    21    26 1   
    44    23    24 1   
    45    23    46 1   
    46    23    47 1   
    47    24    25 1   
    48    24    48 1   
    49    24    49 1   
    50    25    50 1   
    51    25    51 1   
@<TRIPOS>SUBSTRUCTURE
     1 0HW         1 TEMP              0 ****  ****    0 ROOT
