@<TRIPOS>MOLECULE
0HX
   40    40     1     0     0
SMALL
No Charge or Current Charge


@<TRIPOS>ATOM
      1 C4           0.6050     3.4810    -1.2590 c3         1 0HX      -0.082400
      2 C5           1.6400     2.8130    -2.1900 c3         1 0HX      -0.087600
      3 C6           0.0570     0.2300     0.3120 c6         1 0HX       0.375300
      4 C11         -0.8920    -0.9490    -0.0380 c6         1 0HX       0.078700
      5 C7           1.9120    -1.3590     0.3220 ce         1 0HX       0.061900
      6 C8           3.4350    -1.5490     0.2090 c          1 0HX       0.725200
      7 C9           1.0650    -2.3450     0.7280 c2         1 0HX      -0.437200
      8 C10         -0.4280    -2.1560     0.8200 c6         1 0HX       0.223500
      9 C13         -4.5750     0.2330    -0.1580 c3         1 0HX      -0.181100
     10 N1          -2.3210    -0.6280     0.2100 ns         1 0HX      -0.486900
     11 C3           0.2900     2.6620     0.0170 c3         1 0HX       0.181300
     12 C2          -0.7010     3.4040     0.9560 c3         1 0HX      -0.082400
     13 O1          -0.3100     1.4240    -0.4090 os         1 0HX      -0.441000
     14 O2           1.4260    -0.0960    -0.0060 os         1 0HX      -0.344100
     15 O3           4.1280    -0.6050    -0.1570 o          1 0HX      -0.695500
     16 O4           3.9180    -2.6410     0.4920 o          1 0HX      -0.695500
     17 O5          -1.0520    -3.3610     0.3890 oh         1 0HX      -0.659000
     18 O6          -2.8820     0.1160    -1.8730 o          1 0HX      -0.599100
     19 H1           0.9890     4.4650    -0.9630 hc         1 0HX       0.032200
     20 H2          -0.3210     3.6590    -1.8190 hc         1 0HX       0.032200
     21 H3           1.8520     3.4590    -3.0500 hc         1 0HX       0.037367
     22 H4           2.5810     2.6310    -1.6570 hc         1 0HX       0.037367
     23 H5           1.2660     1.8540    -2.5690 hc         1 0HX       0.037367
     24 H6          -0.0150     0.4170     1.3930 h2         1 0HX       0.010700
     25 H7          -0.7520    -1.1960    -1.0990 h1         1 0HX       0.121700
     26 H8           1.4540    -3.3280     0.9960 ha         1 0HX       0.206000
     27 H9          -0.6860    -1.9620     1.8710 h1         1 0HX       0.000700
     28 H10         -4.4720     0.9030     0.7030 hc         1 0HX       0.049367
     29 H11         -5.2460     0.6510    -0.9180 hc         1 0HX       0.049367
     30 H12         -4.9950    -0.6700     0.2990 hc         1 0HX       0.049367
     31 H13         -2.6910    -0.7820     1.1390 hn         1 0HX       0.295500
     32 H14          1.2320     2.4850     0.5550 h1         1 0HX       0.053700
     33 H15         -0.1150     2.4110     2.8160 hc         1 0HX       0.037367
     34 H16         -1.6190     3.3480     2.9320 hc         1 0HX       0.037367
     35 H17         -1.6250     1.7830     2.1040 hc         1 0HX       0.037367
     36 H18         -0.2750     4.3850     1.1990 hc         1 0HX       0.032200
     37 H19         -1.6360     3.5990     0.4160 hc         1 0HX       0.032200
     38 H21         -0.7710    -4.0550     1.0220 ho         1 0HX       0.435000
     39 C12         -3.1890    -0.0840    -0.7070 c          1 0HX       0.610100
     40 C1          -1.0320     2.6880     2.2820 c3         1 0HX      -0.087600
@<TRIPOS>BOND
     1     1     2 1   
     2     1    11 1   
     3     1    19 1   
     4     1    20 1   
     5     2    21 1   
     6     2    22 1   
     7     2    23 1   
     8     3     4 1   
     9     3    13 1   
    10     3    14 1   
    11     3    24 1   
    12     4     8 1   
    13     4    10 1   
    14     4    25 1   
    15     5     6 1   
    16     5     7 2   
    17     5    14 1   
    18     6    15 1   
    19     6    16 1   
    20     7     8 1   
    21     7    26 1   
    22     8    17 1   
    23     8    27 1   
    24     9    28 1   
    25     9    29 1   
    26     9    30 1   
    27     9    39 1   
    28    10    31 1   
    29    10    39 1   
    30    11    12 1   
    31    11    13 1   
    32    11    32 1   
    33    12    36 1   
    34    12    37 1   
    35    12    40 1   
    36    17    38 1   
    37    18    39 2   
    38    33    40 1   
    39    34    40 1   
    40    35    40 1   
@<TRIPOS>SUBSTRUCTURE
     1 0HX         1 TEMP              0 ****  ****    0 ROOT
