@<TRIPOS>MOLECULE
0HX
   40    40     1     0     0
SMALL
bcc


@<TRIPOS>ATOM
      1 C4           0.8140     3.3730    -1.0780 c3         1 0HX      -0.082400
      2 C5           1.8350     2.6050    -1.9050 c3         1 0HX      -0.087600
      3 C6           0.1060     0.2280     0.2550 c6         1 0HX       0.328900
      4 C11         -0.8700    -0.9140    -0.0360 c6         1 0HX       0.078700
      5 C7           1.8820    -1.2990     0.1160 ce         1 0HX       0.061900
      6 C8           3.3920    -1.4330    -0.0700 c          1 0HX       0.935800
      7 C9           1.1030    -2.2760     0.5810 c2         1 0HX      -0.387200
      8 C10         -0.3880    -2.1590     0.7000 c6         1 0HX       0.200300
      9 C13         -4.4650     0.2540     0.1500 c3         1 0HX      -0.181100
     10 N1          -2.2120    -0.5760     0.3520 ns         1 0HX      -0.553900
     11 C3           0.2300     2.6060     0.1030 c3         1 0HX       0.158100
     12 C2          -0.8530     3.4170     0.8050 c3         1 0HX      -0.082400
     13 O1          -0.3260     1.3710    -0.3580 os         1 0HX      -0.394600
     14 O2           1.3910    -0.0930    -0.2480 os         1 0HX      -0.320900
     15 O3           3.9800    -0.4340    -0.5130 o          1 0HX      -0.800800
     16 O4           3.8820    -2.5340     0.2390 o          1 0HX      -0.800800
     17 O5          -1.0590    -3.2700     0.1460 oh         1 0HX      -0.596800
     18 O6          -3.0090    -0.1010    -1.7110 o          1 0HX      -0.599100
     19 H1           1.2760     4.2780    -0.6750 hc         1 0HX       0.032200
     20 H2          -0.0030     3.7150    -1.7230 hc         1 0HX       0.032200
     21 H3           2.3030     3.2670    -2.6350 hc         1 0HX       0.037367
     22 H4           2.6220     2.1720    -1.2880 hc         1 0HX       0.037367
     23 H5           1.3700     1.7860    -2.4530 hc         1 0HX       0.037367
     24 H6           0.1980     0.3590     1.3490 h2         1 0HX       0.010700
     25 H7          -0.8590    -1.1070    -1.1120 h1         1 0HX       0.121700
     26 H8           1.5670    -3.2040     0.8890 ha         1 0HX       0.156000
     27 H9          -0.6540    -2.0560     1.7640 h1         1 0HX       0.000700
     28 H10         -4.6050     1.3280     0.0210 hc         1 0HX       0.049367
     29 H11         -5.2960    -0.2430    -0.3490 hc         1 0HX       0.049367
     30 H12         -4.5140     0.0300     1.2140 hc         1 0HX       0.049367
     31 H13         -2.4210    -0.5790     1.3380 hn         1 0HX       0.295500
     32 H14          1.0380     2.4010     0.8180 h1         1 0HX       0.053700
     33 H15         -0.6170     2.5830     2.7990 hc         1 0HX       0.037367
     34 H16         -2.1410     3.4260     2.5440 hc         1 0HX       0.037367
     35 H17         -1.9030     1.8280     1.8580 hc         1 0HX       0.037367
     36 H18         -0.4290     4.3940     1.0520 hc         1 0HX       0.032200
     37 H19         -1.6660     3.6060     0.0990 hc         1 0HX       0.032200
     38 H21         -0.8770    -4.0350     0.6990 ho         1 0HX       0.396000
     39 C12         -3.1660    -0.1540    -0.5000 c          1 0HX       0.677100
     40 C1          -1.4060     2.7740     2.0700 c3         1 0HX      -0.087600
@<TRIPOS>BOND
     1     1     2 1   
     2     1    11 1   
     3     1    19 1   
     4     1    20 1   
     5     2    21 1   
     6     2    22 1   
     7     2    23 1   
     8     3     4 1   
     9     3    13 1   
    10     3    14 1   
    11     3    24 1   
    12     4     8 1   
    13     4    10 1   
    14     4    25 1   
    15     5     6 1   
    16     5     7 2   
    17     5    14 1   
    18     6    15 1   
    19     6    16 1   
    20     7     8 1   
    21     7    26 1   
    22     8    17 1   
    23     8    27 1   
    24     9    28 1   
    25     9    29 1   
    26     9    30 1   
    27     9    39 1   
    28    10    31 1   
    29    10    39 1   
    30    11    12 1   
    31    11    13 1   
    32    11    32 1   
    33    12    36 1   
    34    12    37 1   
    35    12    40 1   
    36    17    38 1   
    37    18    39 2   
    38    33    40 1   
    39    34    40 1   
    40    35    40 1   
@<TRIPOS>SUBSTRUCTURE
     1 0HX         1 TEMP              0 ****  ****    0 ROOT
