@<TRIPOS>MOLECULE
0HY
   33    34     1     0     0
SMALL
No Charge or Current Charge


@<TRIPOS>ATOM
      1 O1           3.0870    -2.4280     0.6580 o          1 0HY      -0.500000
      2 N1           5.6550     1.1340    -0.1880 nv         1 0HY      -1.050200
      3 C1           2.0080    -0.3730     0.0530 cc         1 0HY      -0.458400
      4 C2           3.1380    -1.2520     0.3430 c          1 0HY       0.613200
      5 N2           3.4830     1.4890    -0.3940 nd         1 0HY      -0.780300
      6 C3          -4.2560     0.1400     0.8160 c          1 0HY       0.588100
      7 N3          -0.2330     1.4080    -0.5440 nc         1 0HY      -0.391400
      8 C4          -0.4550     0.1340    -0.1890 cd         1 0HY       0.299300
      9 C5          -6.5290     0.1600     0.0150 c3         1 0HY       0.152900
     10 C6           2.2280     0.9360    -0.2980 cd         1 0HY       0.459600
     11 C7           0.6230    -0.8690     0.1270 c          1 0HY       0.498000
     12 C8          -2.8520     0.6980     0.5640 c3         1 0HY      -0.132400
     13 N4           1.1260     1.7200    -0.5700 na         1 0HY      -0.451300
     14 C9           4.4350     0.6530    -0.1170 cc         1 0HY       0.786800
     15 C10         -2.4140    -0.7160    -1.5530 c3         1 0HY      -0.088100
     16 N5           4.3170    -0.6250     0.2290 ns         1 0HY      -0.457400
     17 O2          -4.5270    -0.6140     1.7400 o          1 0HY      -0.486000
     18 O3          -5.1640     0.6040    -0.1000 os         1 0HY      -0.447100
     19 C11         -1.9120    -0.3330    -0.1380 c3         1 0HY      -0.074000
     20 O4           0.3660    -2.0310     0.4250 o          1 0HY      -0.522100
     21 H1           5.6540     2.1410    -0.2850 hn         1 0HY       0.516000
     22 H2           6.3150     0.7820     0.4930 hn         1 0HY       0.516000
     23 H3          -7.1430     0.6040    -0.7780 h1         1 0HY       0.047367
     24 H4          -6.5940    -0.9320    -0.0760 h1         1 0HY       0.047367
     25 H5          -6.9570     0.4550     0.9820 h1         1 0HY       0.047367
     26 H6          -2.9320     1.5870    -0.0740 hc         1 0HY       0.078700
     27 H7          -2.4140     0.9700     1.5320 hc         1 0HY       0.078700
     28 H8          -3.4160    -1.1590    -1.5140 hc         1 0HY       0.045700
     29 H9          -2.4520     0.1640    -2.2070 hc         1 0HY       0.045700
     30 H10         -1.7430    -1.4520    -2.0130 hc         1 0HY       0.045700
     31 H11          5.1440    -1.1750     0.3880 hn         1 0HY       0.327500
     32 H12         -1.9680    -1.2440     0.4710 hc         1 0HY       0.100700
     33 H14          1.3550     2.6810    -0.8310 hn         1 0HY       0.544000
@<TRIPOS>BOND
     1     1     4 2   
     2     2    14 1   
     3     2    21 1   
     4     2    22 1   
     5     3     4 1   
     6     3    10 2   
     7     3    11 1   
     8     4    16 1   
     9     5    10 1   
    10     5    14 2   
    11     6    12 1   
    12     6    17 2   
    13     6    18 1   
    14     7     8 2   
    15     7    13 1   
    16     8    11 1   
    17     8    19 1   
    18     9    18 1   
    19     9    23 1   
    20     9    24 1   
    21     9    25 1   
    22    10    13 1   
    23    11    20 2   
    24    12    19 1   
    25    12    26 1   
    26    12    27 1   
    27    13    33 1   
    28    14    16 1   
    29    15    19 1   
    30    15    28 1   
    31    15    29 1   
    32    15    30 1   
    33    16    31 1   
    34    19    32 1   
@<TRIPOS>SUBSTRUCTURE
     1 0HY         1 TEMP              0 ****  ****    0 ROOT
