@<TRIPOS>MOLECULE
0HY
   33    34     1     0     0
SMALL
abcg2


@<TRIPOS>ATOM
      1 O1           3.2120    -2.4240     0.5300 o          1 0HY      -0.500000
      2 N1           5.5320     1.4460    -0.0360 nv         1 0HY      -1.050200
      3 C1           1.9370    -0.4540     0.1000 cc         1 0HY      -0.458400
      4 C2           3.1360    -1.2310     0.3100 c          1 0HY       0.613200
      5 N2           3.2580     1.5730    -0.1870 nd         1 0HY      -0.780300
      6 C3          -4.2790     0.0780     0.3490 c          1 0HY       0.588100
      7 N3          -0.2490     1.2010    -0.3250 nc         1 0HY      -0.391400
      8 C4          -0.4660    -0.0480    -0.1200 cd         1 0HY       0.299300
      9 C5          -6.5530     0.6960     0.3690 c3         1 0HY       0.152900
     10 C6           2.0970     0.9140    -0.1350 cd         1 0HY       0.459600
     11 C7           0.6200    -1.0270     0.1320 c          1 0HY       0.498000
     12 C8          -2.8840     0.5820     0.0900 c3         1 0HY      -0.132400
     13 N4           0.9950     1.6590    -0.3280 na         1 0HY      -0.451300
     14 C9           4.3440     0.8590     0.0030 cc         1 0HY       0.786800
     15 C10         -2.1470    -1.2320    -1.5070 c3         1 0HY      -0.088100
     16 N5           4.3040    -0.4760     0.2400 ns         1 0HY      -0.457400
     17 O2          -4.5580    -1.0170     0.7710 o          1 0HY      -0.486000
     18 O3          -5.1880     1.0110     0.0950 os         1 0HY      -0.447100
     19 C11         -1.8850    -0.5430    -0.1620 c3         1 0HY      -0.074000
     20 O4           0.3590    -2.2060     0.3470 o          1 0HY      -0.522100
     21 H1           5.5860     2.4380    -0.1940 hn         1 0HY       0.516000
     22 H2           6.3900     0.9430     0.1100 hn         1 0HY       0.516000
     23 H3          -7.1230     1.5810     0.1040 h1         1 0HY       0.047367
     24 H4          -6.8950    -0.1460    -0.2330 h1         1 0HY       0.047367
     25 H5          -6.7070     0.4690     1.4230 h1         1 0HY       0.047367
     26 H6          -2.8950     1.2950    -0.7360 hc         1 0HY       0.078700
     27 H7          -2.5930     1.1540     0.9780 hc         1 0HY       0.078700
     28 H8          -3.1420    -1.6750    -1.5320 hc         1 0HY       0.045700
     29 H9          -2.0750    -0.5150    -2.3270 hc         1 0HY       0.045700
     30 H10         -1.4300    -2.0300    -1.6890 hc         1 0HY       0.045700
     31 H11          5.1700    -0.9790     0.3880 hn         1 0HY       0.327500
     32 H12         -1.9920    -1.2890     0.6280 hc         1 0HY       0.100700
     33 H14          1.0930     2.6510    -0.4870 hn         1 0HY       0.544000
@<TRIPOS>BOND
     1     1     4 2   
     2     2    14 1   
     3     2    21 1   
     4     2    22 1   
     5     3     4 1   
     6     3    10 2   
     7     3    11 1   
     8     4    16 1   
     9     5    10 1   
    10     5    14 2   
    11     6    12 1   
    12     6    17 2   
    13     6    18 1   
    14     7     8 2   
    15     7    13 1   
    16     8    11 1   
    17     8    19 1   
    18     9    18 1   
    19     9    23 1   
    20     9    24 1   
    21     9    25 1   
    22    10    13 1   
    23    11    20 2   
    24    12    19 1   
    25    12    26 1   
    26    12    27 1   
    27    13    33 1   
    28    14    16 1   
    29    15    19 1   
    30    15    28 1   
    31    15    29 1   
    32    15    30 1   
    33    16    31 1   
    34    19    32 1   
@<TRIPOS>SUBSTRUCTURE
     1 0HY         1 TEMP              0 ****  ****    0 ROOT
