@<TRIPOS>MOLECULE
0HZ
   38    39     1     0     0
SMALL
No Charge or Current Charge


@<TRIPOS>ATOM
      1 N           17.6490    44.8970   101.7700 n          1 0HZ      -0.404800
      2 CA          18.2060    44.7220   103.1350 c5         1 0HZ       0.024700
      3 CB          19.0400    46.0260   103.2520 c5         1 0HZ      -0.073400
      4 CG          18.0700    47.0530   102.6010 c5         1 0HZ      -0.098400
      5 CD          17.5910    46.3030   101.3260 c5         1 0HZ       0.101000
      6 C           19.0720    43.4350   103.3690 c          1 0HZ       0.561000
      7 O           19.9670    43.2940   104.1890 o          1 0HZ      -0.528000
      8 N1          18.7980    42.4570   102.4300 ns         1 0HZ      -0.512900
      9 CA1         17.5960    42.4070   101.5510 c6         1 0HZ       0.038700
     10 C1          17.2200    43.8090   100.9970 c          1 0HZ       0.562000
     11 O1          16.6700    43.9620    99.9140 o          1 0HZ      -0.539000
     12 CB1         16.3760    41.8090   102.3120 c3         1 0HZ      -0.094400
     13 CG1         16.5840    40.3660   102.8300 c3         1 0HZ      -0.095400
     14 CD1         15.3350    39.7970   103.5290 c3         1 0HZ       0.060600
     15 NE          15.6020    38.4240   103.9950 nu         1 0HZ      -0.892000
     16 CZ          14.8010    37.5970   104.6350 cz         1 0HZ       0.935600
     17 NH1         15.2370    36.4170   104.9570 nv         1 0HZ      -0.609800
     18 NH2         13.5890    37.9530   104.9420 nv         1 0HZ      -0.609800
     19 HA          17.3890    44.7030   103.8670 h1         1 0HZ       0.065700
     20 HB2         19.2900    46.2750   104.2900 hc         1 0HZ       0.075200
     21 HB3         19.9810    45.9560   102.6920 hc         1 0HZ       0.075200
     22 HG2         17.2260    47.2710   103.2670 hc         1 0HZ       0.063200
     23 HG3         18.5540    48.0080   102.3670 hc         1 0HZ       0.063200
     24 HD2         18.2730    46.4680   100.4820 h1         1 0HZ       0.065700
     25 HD3         16.5790    46.6050   101.0230 h1         1 0HZ       0.065700
     26 H           19.3890    41.6350   102.4770 hn         1 0HZ       0.322500
     27 HA1         17.8230    41.7780   100.6780 h1         1 0HZ       0.091700
     28 HB21        16.1150    42.4540   103.1610 hc         1 0HZ       0.065700
     29 HB31        15.5020    41.8140   101.6480 hc         1 0HZ       0.065700
     30 HG21        16.8520    39.7170   101.9870 hc         1 0HZ       0.063200
     31 HG31        17.4250    40.3470   103.5340 hc         1 0HZ       0.063200
     32 HD21        15.0740    40.4460   104.3790 h1         1 0HZ       0.068700
     33 HD31        14.4920    39.8050   102.8220 h1         1 0HZ       0.068700
     34 HE          16.5290    38.0640   103.7950 hn         1 0HZ       0.374000
     35 HH11        14.6620    35.7520   105.4470 hn         1 0HZ       0.379750
     36 HH12        16.1710    36.1210   104.7300 hn         1 0HZ       0.379750
     37 HH21        13.2440    38.8640   104.6950 hn         1 0HZ       0.379750
     38 HH22        12.9560    37.3420   105.4300 hn         1 0HZ       0.379750
@<TRIPOS>BOND
     1     1     2 1   
     2     1     5 1   
     3     1    10 1   
     4     2     3 1   
     5     2     6 1   
     6     2    19 1   
     7     3     4 1   
     8     3    20 1   
     9     3    21 1   
    10     4     5 1   
    11     4    22 1   
    12     4    23 1   
    13     5    24 1   
    14     5    25 1   
    15     6     7 2   
    16     6     8 1   
    17     8     9 1   
    18     8    26 1   
    19     9    10 1   
    20     9    12 1   
    21     9    27 1   
    22    10    11 2   
    23    12    13 1   
    24    12    28 1   
    25    12    29 1   
    26    13    14 1   
    27    13    30 1   
    28    13    31 1   
    29    14    15 1   
    30    14    32 1   
    31    14    33 1   
    32    15    16 2   
    33    15    34 1   
    34    16    17 1   
    35    16    18 1   
    36    17    35 1   
    37    17    36 1   
    38    18    37 1   
    39    18    38 1   
@<TRIPOS>SUBSTRUCTURE
     1 0HZ         1 TEMP              0 ****  ****    0 ROOT
