@<TRIPOS>MOLECULE
0HZ
   38    39     1     0     0
SMALL
abcg2


@<TRIPOS>ATOM
      1 N           17.6240    44.7790   101.8190 n          1 0HZ      -0.404800
      2 CA          18.2850    44.6460   103.1100 c5         1 0HZ       0.024700
      3 CB          18.9600    46.0010   103.2820 c5         1 0HZ      -0.073400
      4 CG          17.9450    46.9480   102.6470 c5         1 0HZ      -0.098400
      5 CD          17.4140    46.1720   101.4420 c5         1 0HZ       0.101000
      6 C           19.2180    43.4560   103.1670 c          1 0HZ       0.561000
      7 O           20.1920    43.4430   103.8990 o          1 0HZ      -0.528000
      8 N1          18.8660    42.4380   102.3680 ns         1 0HZ      -0.512900
      9 CA1         17.6430    42.3820   101.5920 c6         1 0HZ       0.038700
     10 C1          17.2820    43.7520   101.0390 c          1 0HZ       0.562000
     11 O1          16.6990    43.8760    99.9720 o          1 0HZ      -0.539000
     12 CB1         16.4520    41.8100   102.3700 c3         1 0HZ      -0.094400
     13 CG1         16.6950    40.3860   102.8500 c3         1 0HZ      -0.095400
     14 CD1         15.4490    39.8230   103.5090 c3         1 0HZ       0.060600
     15 NE          15.6850    38.4600   103.9540 nu         1 0HZ      -0.892000
     16 CZ          14.7890    37.7140   104.5870 cz         1 0HZ       0.935600
     17 NH1         15.1060    36.4830   104.9720 nv         1 0HZ      -0.609800
     18 NH2         13.5790    38.1920   104.8450 nv         1 0HZ      -0.609800
     19 HA          17.5370    44.5070   103.9040 h1         1 0HZ       0.065700
     20 HB2         19.1680    46.2300   104.3250 hc         1 0HZ       0.075200
     21 HB3         19.9030    46.0220   102.7320 hc         1 0HZ       0.075200
     22 HG2         17.1360    47.1530   103.3510 hc         1 0HZ       0.063200
     23 HG3         18.3810    47.9020   102.3580 hc         1 0HZ       0.063200
     24 HD2         17.9740    46.4000   100.5330 h1         1 0HZ       0.065700
     25 HD3         16.3600    46.3710   101.2440 h1         1 0HZ       0.065700
     26 H           19.4450    41.6100   102.3870 hn         1 0HZ       0.322500
     27 HA1         17.8390    41.7370   100.7340 h1         1 0HZ       0.091700
     28 HB21        16.2160    42.4550   103.2220 hc         1 0HZ       0.065700
     29 HB31        15.5810    41.8280   101.7100 hc         1 0HZ       0.065700
     30 HG21        16.9760    39.7570   101.9990 hc         1 0HZ       0.063200
     31 HG31        17.5260    40.3610   103.5590 hc         1 0HZ       0.063200
     32 HD21        15.1700    40.4460   104.3640 h1         1 0HZ       0.068700
     33 HD31        14.6190    39.8460   102.7960 h1         1 0HZ       0.068700
     34 HE          16.5750    38.0390   103.7340 hn         1 0HZ       0.374000
     35 HH11        14.4430    35.9030   105.4570 hn         1 0HZ       0.379750
     36 HH12        16.0460    36.1340   104.8890 hn         1 0HZ       0.379750
     37 HH21        13.2610    39.0680   104.4670 hn         1 0HZ       0.379750
     38 HH22        12.8910    37.6260   105.3140 hn         1 0HZ       0.379750
@<TRIPOS>BOND
     1     1     2 1   
     2     1     5 1   
     3     1    10 1   
     4     2     3 1   
     5     2     6 1   
     6     2    19 1   
     7     3     4 1   
     8     3    20 1   
     9     3    21 1   
    10     4     5 1   
    11     4    22 1   
    12     4    23 1   
    13     5    24 1   
    14     5    25 1   
    15     6     7 2   
    16     6     8 1   
    17     8     9 1   
    18     8    26 1   
    19     9    10 1   
    20     9    12 1   
    21     9    27 1   
    22    10    11 2   
    23    12    13 1   
    24    12    28 1   
    25    12    29 1   
    26    13    14 1   
    27    13    30 1   
    28    13    31 1   
    29    14    15 1   
    30    14    32 1   
    31    14    33 1   
    32    15    16 2   
    33    15    34 1   
    34    16    17 1   
    35    16    18 1   
    36    17    35 1   
    37    17    36 1   
    38    18    37 1   
    39    18    38 1   
@<TRIPOS>SUBSTRUCTURE
     1 0HZ         1 TEMP              0 ****  ****    0 ROOT
