@<TRIPOS>MOLECULE
0I0
   78    84     1     0     0
SMALL
No Charge or Current Charge


@<TRIPOS>ATOM
      1 C13         -1.0120    -1.7610    83.1270 ca         1 0I0       0.137600
      2 C15          0.3400    -3.8020    83.3890 ca         1 0I0       0.080700
      3 C17         -3.2230    -1.4990    84.2440 c          1 0I0       0.612000
      4 C21          0.5240    -5.2360    83.9100 c3         1 0I0      -0.059800
      5 C26         -5.1260    -4.0880    85.3430 c          1 0I0       0.595100
      6 C1           5.0500    -6.3460    83.9650 c6         1 0I0      -0.074200
      7 C2           5.3940    -5.4250    85.1570 c6         1 0I0      -0.063400
      8 C3           4.1340    -4.6620    85.6150 c6         1 0I0      -0.180400
      9 C4           3.5310    -3.8560    84.4620 c          1 0I0       0.605300
     10 C5           3.4560    -4.5380    83.1430 ce         1 0I0      -0.487400
     11 C6           4.1740    -5.6620    82.9240 c2         1 0I0       0.286900
     12 C9           1.2780    -3.2830    82.4530 ca         1 0I0      -0.169600
     13 C11          1.0060    -2.0770    81.7950 ca         1 0I0       0.000000
     14 C12         -0.1370    -1.3420    82.1060 ca         1 0I0      -0.181000
     15 C14         -0.8020    -3.0110    83.7520 ca         1 0I0      -0.214600
     16 C19         -1.8150    -3.4560    84.7880 c          1 0I0       0.595600
     17 C30         -7.3360    -4.5350    83.0150 c3         1 0I0       0.136600
     18 C32         -9.4420    -5.0950    81.8410 ca         1 0I0       0.166100
     19 C33        -10.1830    -6.0300    81.0800 ca         1 0I0      -0.068000
     20 C34        -11.4970    -5.7120    80.6620 ca         1 0I0       0.017000
     21 C35        -12.0670    -4.4660    81.0020 ca         1 0I0      -0.074000
     22 C36        -11.3280    -3.5410    81.7580 ca         1 0I0      -0.052000
     23 C37        -10.0240    -3.8520    82.1760 ca         1 0I0      -0.196000
     24 C38        -12.2450    -6.6390    79.9010 ca         1 0I0      -0.026000
     25 C39        -13.5560    -6.3190    79.4850 ca         1 0I0      -0.022000
     26 C40        -14.1160    -5.0750    79.8290 ca         1 0I0      -0.108000
     27 C41        -13.3740    -4.1520    80.5850 ca         1 0I0      -0.082000
     28 C42         -9.6330    -7.2830    80.7280 ca         1 0I0      -0.067000
     29 C43        -10.3780    -8.2030    79.9720 ca         1 0I0      -0.117000
     30 C44        -11.6830    -7.8860    79.5560 ca         1 0I0      -0.019000
     31 C45        -12.4300    -8.8080    78.7990 ca         1 0I0      -0.105000
     32 C46        -13.7350    -8.4870    78.3860 ca         1 0I0      -0.100000
     33 C47        -14.2970    -7.2450    78.7270 ca         1 0I0      -0.106000
     34 N16         -2.2060    -1.0110    83.4070 n          1 0I0      -0.304000
     35 N18         -2.9860    -2.6960    84.9240 n          1 0I0      -0.389400
     36 N27         -5.0300    -4.3990    84.0010 ns         1 0I0      -0.499900
     37 O7           4.1670    -6.3070    81.7550 oh         1 0I0      -0.541100
     38 O10          2.8230    -4.2010    80.9150 o          1 0I0      -0.600100
     39 O23         -1.6390    -4.4270    85.5090 o          1 0I0      -0.522000
     40 O24         -4.2780    -0.8960    84.3880 o          1 0I0      -0.551000
     41 O28         -6.0300    -4.5260    86.0400 o          1 0I0      -0.597100
     42 O31         -8.1590    -5.4250    82.2410 os         1 0I0      -0.354100
     43 H1           0.8830    -5.2430    84.9460 hc         1 0I0       0.061033
     44 H2          -0.4150    -5.7980    83.8650 hc         1 0I0       0.061033
     45 H3           1.2180    -5.8300    83.3090 hc         1 0I0       0.061033
     46 H4          -3.1090     0.9470    83.4110 h1         1 0I0       0.061367
     47 H5          -1.3940     0.9140    82.9910 h1         1 0I0       0.061367
     48 H6          -2.6100     0.3370    81.8110 h1         1 0I0       0.061367
     49 H7           4.5220    -7.2370    84.3320 hc         1 0I0       0.082200
     50 H8           5.9770    -6.7080    83.5000 hc         1 0I0       0.082200
     51 H9           5.8110    -6.0150    85.9860 hc         1 0I0       0.058200
     52 H10          6.1700    -4.7060    84.8590 hc         1 0I0       0.058200
     53 H11          4.3120    -4.0160    86.4850 hc         1 0I0       0.073700
     54 H12          3.3920    -5.4240    85.8870 hc         1 0I0       0.073700
     55 H15          1.6940    -1.7000    81.0400 ha         1 0I0       0.127000
     56 H16         -0.3080    -0.4260    81.5500 ha         1 0I0       0.129000
     57 H17         -4.5430    -2.3010    86.3530 h1         1 0I0       0.104700
     58 H18         -3.5620    -3.6990    86.7430 h1         1 0I0       0.104700
     59 H19         -6.1570    -6.1640    83.8270 h1         1 0I0       0.071200
     60 H20         -5.5390    -5.5080    82.2970 h1         1 0I0       0.071200
     61 H21         -7.1610    -3.5970    82.4720 h1         1 0I0       0.048700
     62 H22         -7.8120    -4.3030    83.9760 h1         1 0I0       0.048700
     63 H23        -11.7620    -2.5790    82.0230 ha         1 0I0       0.114000
     64 H24         -9.4820    -3.1130    82.7590 ha         1 0I0       0.122000
     65 H25        -15.1250    -4.8220    79.5120 ha         1 0I0       0.113000
     66 H26        -13.8170    -3.1930    80.8450 ha         1 0I0       0.111000
     67 H27         -8.6250    -7.5530    81.0370 ha         1 0I0       0.126000
     68 H28         -9.9380    -9.1630    79.7100 ha         1 0I0       0.113000
     69 H29        -12.0030    -9.7710    78.5300 ha         1 0I0       0.113000
     70 H30        -14.3100    -9.2010    77.8000 ha         1 0I0       0.112000
     71 H31        -15.3070    -7.0050    78.4030 ha         1 0I0       0.112000
     72 H32         -4.2500    -3.9950    83.4960 hn         1 0I0       0.317500
     73 H33          3.6760    -5.7000    81.1430 ho         1 0I0       0.548000
     74 C22         -2.3420     0.3750    82.8750 c3         1 0I0       0.085300
     75 C8           2.5690    -3.9710    82.0910 c          1 0I0       0.636900
     76 C25         -4.0310    -3.1630    85.9100 c3         1 0I0       0.011000
     77 O20          3.1460    -2.7110    84.6330 o          1 0I0      -0.538100
     78 C29         -5.9850    -5.2380    83.2630 c3         1 0I0       0.102000
@<TRIPOS>BOND
     1     1    14 ar  
     2     1    15 ar  
     3     1    34 1   
     4     2     4 1   
     5     2    12 ar  
     6     2    15 ar  
     7     3    34 1   
     8     3    35 1   
     9     3    40 2   
    10     4    43 1   
    11     4    44 1   
    12     4    45 1   
    13     5    36 1   
    14     5    41 2   
    15     5    76 1   
    16     6     7 1   
    17     6    11 1   
    18     6    49 1   
    19     6    50 1   
    20     7     8 1   
    21     7    51 1   
    22     7    52 1   
    23     8     9 1   
    24     8    53 1   
    25     8    54 1   
    26     9    10 1   
    27     9    77 2   
    28    10    11 2   
    29    10    75 1   
    30    11    37 1   
    31    12    13 ar  
    32    12    75 1   
    33    13    14 ar  
    34    13    55 1   
    35    14    56 1   
    36    15    16 1   
    37    16    35 1   
    38    16    39 2   
    39    17    42 1   
    40    17    61 1   
    41    17    62 1   
    42    17    78 1   
    43    18    19 ar  
    44    18    23 ar  
    45    18    42 1   
    46    19    20 ar  
    47    19    28 ar  
    48    20    21 ar  
    49    20    24 ar  
    50    21    22 ar  
    51    21    27 ar  
    52    22    23 ar  
    53    22    63 1   
    54    23    64 1   
    55    24    25 ar  
    56    24    30 ar  
    57    25    26 ar  
    58    25    33 ar  
    59    26    27 ar  
    60    26    65 1   
    61    27    66 1   
    62    28    29 ar  
    63    28    67 1   
    64    29    30 ar  
    65    29    68 1   
    66    30    31 ar  
    67    31    32 ar  
    68    31    69 1   
    69    32    33 ar  
    70    32    70 1   
    71    33    71 1   
    72    34    74 1   
    73    35    76 1   
    74    36    72 1   
    75    36    78 1   
    76    37    73 1   
    77    38    75 2   
    78    46    74 1   
    79    47    74 1   
    80    48    74 1   
    81    57    76 1   
    82    58    76 1   
    83    59    78 1   
    84    60    78 1   
@<TRIPOS>SUBSTRUCTURE
     1 0I0         1 TEMP              0 ****  ****    0 ROOT
