@<TRIPOS>MOLECULE
0I0
   78    84     1     0     0
SMALL
abcg2


@<TRIPOS>ATOM
      1 C13         -1.3740    -2.5980    83.1670 ca         1 0I0       0.137600
      2 C15          0.3210    -4.3000    83.6750 ca         1 0I0       0.080700
      3 C17         -3.5290    -2.5420    84.2790 c          1 0I0       0.612000
      4 C21          0.8020    -5.5210    84.4110 c3         1 0I0      -0.059800
      5 C26         -5.2900    -4.9110    85.4170 c          1 0I0       0.595100
      6 C1           6.0450    -4.8260    83.7810 c6         1 0I0      -0.074200
      7 C2           6.0750    -3.7120    84.8180 c6         1 0I0      -0.063400
      8 C3           4.7350    -3.6330    85.5390 c6         1 0I0      -0.180400
      9 C4           3.5710    -3.4480    84.5900 c          1 0I0       0.605300
     10 C5           3.6370    -4.1520    83.2980 ce         1 0I0      -0.487400
     11 C6           4.8300    -4.7730    82.9200 c2         1 0I0       0.286900
     12 C9           1.1530    -3.6980    82.7340 ca         1 0I0      -0.169600
     13 C11          0.7210    -2.5950    82.0010 ca         1 0I0       0.000000
     14 C12         -0.5190    -2.0350    82.2150 ca         1 0I0      -0.181000
     15 C14         -0.9620    -3.7390    83.8900 ca         1 0I0      -0.214600
     16 C19         -1.8910    -4.3190    84.8650 c          1 0I0       0.595600
     17 C30         -7.2780    -5.0540    82.9010 c3         1 0I0       0.136600
     18 C32         -9.3500    -5.1490    81.6950 ca         1 0I0       0.166100
     19 C33        -10.3570    -5.9570    81.1250 ca         1 0I0      -0.068000
     20 C34        -11.4420    -5.3270    80.4600 ca         1 0I0       0.017000
     21 C35        -11.5110    -3.9070    80.3740 ca         1 0I0      -0.074000
     22 C36        -10.4910    -3.1540    80.9570 ca         1 0I0      -0.052000
     23 C37         -9.4230    -3.7600    81.6070 ca         1 0I0      -0.196000
     24 C38        -12.4690    -6.1200    79.8740 ca         1 0I0      -0.026000
     25 C39        -13.5600    -5.4930    79.2040 ca         1 0I0      -0.022000
     26 C40        -13.5990    -4.0610    79.1370 ca         1 0I0      -0.108000
     27 C41        -12.6200    -3.3060    79.6960 ca         1 0I0      -0.082000
     28 C42        -10.3200    -7.3860    81.1930 ca         1 0I0      -0.067000
     29 C43        -11.3010    -8.1400    80.6330 ca         1 0I0      -0.117000
     30 C44        -12.4090    -7.5400    79.9540 ca         1 0I0      -0.019000
     31 C45        -13.4300    -8.3000    79.3680 ca         1 0I0      -0.105000
     32 C46        -14.4880    -7.6810    78.7180 ca         1 0I0      -0.100000
     33 C47        -14.5560    -6.2940    78.6350 ca         1 0I0      -0.106000
     34 N16         -2.6270    -2.0320    83.3820 n          1 0I0      -0.304000
     35 N18         -3.1300    -3.6740    84.9830 n          1 0I0      -0.389400
     36 N27         -5.2060    -5.3760    84.1610 ns         1 0I0      -0.499900
     37 O7           4.9550    -5.3770    81.7690 oh         1 0I0      -0.541100
     38 O10          2.6280    -4.7500    81.2590 o          1 0I0      -0.600100
     39 O23         -1.6650    -5.3000    85.5560 o          1 0I0      -0.522000
     40 O24         -4.6360    -2.0580    84.4680 o          1 0I0      -0.551000
     41 O28         -6.2680    -5.0860    86.1410 o          1 0I0      -0.597100
     42 O31         -8.3370    -5.8080    82.3150 os         1 0I0      -0.354100
     43 H1           0.8730    -5.3280    85.4820 hc         1 0I0       0.061033
     44 H2           0.1100    -6.3520    84.2870 hc         1 0I0       0.061033
     45 H3           1.7790    -5.8330    84.0520 hc         1 0I0       0.061033
     46 H4          -4.0180    -0.5560    82.9520 h1         1 0I0       0.061367
     47 H5          -2.3300    -0.0290    82.8110 h1         1 0I0       0.061367
     48 H6          -3.0490    -1.0690    81.5580 h1         1 0I0       0.061367
     49 H7           6.0320    -5.8050    84.2770 hc         1 0I0       0.082200
     50 H8           6.9230    -4.8160    83.1340 hc         1 0I0       0.082200
     51 H9           6.8800    -3.8920    85.5310 hc         1 0I0       0.058200
     52 H10          6.2840    -2.7590    84.3250 hc         1 0I0       0.058200
     53 H11          4.7070    -2.8210    86.2640 hc         1 0I0       0.073700
     54 H12          4.5540    -4.5690    86.0820 hc         1 0I0       0.073700
     55 H15          1.3780    -2.1570    81.2600 ha         1 0I0       0.127000
     56 H16         -0.8150    -1.1720    81.6420 ha         1 0I0       0.129000
     57 H17         -4.4570    -3.3370    86.5600 h1         1 0I0       0.104700
     58 H18         -3.5430    -4.8530    86.6260 h1         1 0I0       0.104700
     59 H19         -6.8260    -6.6770    84.2360 h1         1 0I0       0.071200
     60 H20         -5.9000    -6.7020    82.7280 h1         1 0I0       0.071200
     61 H21         -6.7770    -4.4500    82.1390 h1         1 0I0       0.048700
     62 H22         -7.6680    -4.3920    83.6770 h1         1 0I0       0.048700
     63 H23        -10.5320    -2.0730    80.8990 ha         1 0I0       0.114000
     64 H24         -8.6530    -3.1420    82.0430 ha         1 0I0       0.122000
     65 H25        -14.4320    -3.5930    78.6260 ha         1 0I0       0.113000
     66 H26        -12.6600    -2.2240    79.6380 ha         1 0I0       0.111000
     67 H27         -9.4920    -7.8600    81.7000 ha         1 0I0       0.126000
     68 H28        -11.2600    -9.2210    80.6920 ha         1 0I0       0.113000
     69 H29        -13.3820    -9.3810    79.4290 ha         1 0I0       0.113000
     70 H30        -15.2700    -8.2830    78.2710 ha         1 0I0       0.112000
     71 H31        -15.3860    -5.8190    78.1260 ha         1 0I0       0.112000
     72 H32         -4.3870    -5.1690    83.6120 hn         1 0I0       0.317500
     73 H33          4.0590    -5.2660    81.2910 ho         1 0I0       0.548000
     74 C22         -3.0280    -0.8440    82.6240 c3         1 0I0       0.085300
     75 C8           2.5070    -4.2320    82.3910 c          1 0I0       0.636900
     76 C25         -4.0810    -4.1700    85.9730 c3         1 0I0       0.011000
     77 O20          2.6230    -2.7430    84.9120 o          1 0I0      -0.538100
     78 C29         -6.3070    -6.0580    83.5060 c3         1 0I0       0.102000
@<TRIPOS>BOND
     1     1    14 ar  
     2     1    15 ar  
     3     1    34 1   
     4     2     4 1   
     5     2    12 ar  
     6     2    15 ar  
     7     3    34 1   
     8     3    35 1   
     9     3    40 2   
    10     4    43 1   
    11     4    44 1   
    12     4    45 1   
    13     5    36 1   
    14     5    41 2   
    15     5    76 1   
    16     6     7 1   
    17     6    11 1   
    18     6    49 1   
    19     6    50 1   
    20     7     8 1   
    21     7    51 1   
    22     7    52 1   
    23     8     9 1   
    24     8    53 1   
    25     8    54 1   
    26     9    10 1   
    27     9    77 2   
    28    10    11 2   
    29    10    75 1   
    30    11    37 1   
    31    12    13 ar  
    32    12    75 1   
    33    13    14 ar  
    34    13    55 1   
    35    14    56 1   
    36    15    16 1   
    37    16    35 1   
    38    16    39 2   
    39    17    42 1   
    40    17    61 1   
    41    17    62 1   
    42    17    78 1   
    43    18    19 ar  
    44    18    23 ar  
    45    18    42 1   
    46    19    20 ar  
    47    19    28 ar  
    48    20    21 ar  
    49    20    24 ar  
    50    21    22 ar  
    51    21    27 ar  
    52    22    23 ar  
    53    22    63 1   
    54    23    64 1   
    55    24    25 ar  
    56    24    30 ar  
    57    25    26 ar  
    58    25    33 ar  
    59    26    27 ar  
    60    26    65 1   
    61    27    66 1   
    62    28    29 ar  
    63    28    67 1   
    64    29    30 ar  
    65    29    68 1   
    66    30    31 ar  
    67    31    32 ar  
    68    31    69 1   
    69    32    33 ar  
    70    32    70 1   
    71    33    71 1   
    72    34    74 1   
    73    35    76 1   
    74    36    72 1   
    75    36    78 1   
    76    37    73 1   
    77    38    75 2   
    78    46    74 1   
    79    47    74 1   
    80    48    74 1   
    81    57    76 1   
    82    58    76 1   
    83    59    78 1   
    84    60    78 1   
@<TRIPOS>SUBSTRUCTURE
     1 0I0         1 TEMP              0 ****  ****    0 ROOT
