@<TRIPOS>MOLECULE
0I1
   46    49     1     0     0
SMALL
abcg2


@<TRIPOS>ATOM
      1 C5         -17.7430     4.5040    20.0690 cy         1 0I1       0.078000
      2 C6         -18.7060     2.6230    21.5760 c          1 0I1       0.616100
      3 C8         -17.5960     1.6590    21.1970 c6         1 0I1      -0.134700
      4 C10        -15.3320     0.7970    21.9230 c6         1 0I1       0.197800
      5 C13        -18.0800     0.2100    21.1620 c6         1 0I1      -0.070900
      6 C15        -13.5960    -1.4670    21.8880 ca         1 0I1       0.044900
      7 C17        -13.2280    -3.6510    22.3510 ca         1 0I1       0.093900
      8 C20        -16.7780    -3.2300    22.9200 cp         1 0I1      -0.173500
      9 C21        -17.5350    -2.3650    23.7150 ca         1 0I1      -0.049500
     10 C22        -18.8050    -2.7240    24.1460 ca         1 0I1      -0.159500
     11 C26        -17.3240    -4.4640    22.5550 ca         1 0I1      -0.049500
     12 F1         -19.1020     6.3880    19.2590 f          1 0I1      -0.249000
     13 C2         -18.4950     5.8140    20.3750 cy         1 0I1       0.153300
     14 C3         -19.4690     5.0200    21.2650 cy         1 0I1       0.078000
     15 N4         -18.6730     3.8230    20.9840 nj         1 0I1      -0.432800
     16 O7         -19.5730     2.3480    22.4130 o          1 0I1      -0.600100
     17 C9         -16.4430     1.8000    22.2060 c6         1 0I1      -0.070900
     18 N11        -15.8690    -0.5600    21.9280 nh         1 0I1      -0.790400
     19 C12        -16.9200    -0.7430    20.9170 c6         1 0I1       0.197800
     20 C14        -14.9720    -1.6150    22.0960 ca         1 0I1       0.196000
     21 N16        -12.7210    -2.4670    22.0210 nb         1 0I1      -0.152000
     22 N18        -14.5060    -3.9020    22.6110 nb         1 0I1      -0.165000
     23 C19        -15.3890    -2.9000    22.5210 cp         1 0I1       0.156500
     24 C23        -19.3110    -3.9500    23.7560 ca         1 0I1       0.178000
     25 F24        -20.5530    -4.3040    24.1710 f          1 0I1      -0.181000
     26 C25        -18.5990    -4.8300    22.9620 ca         1 0I1      -0.159500
     27 H1         -17.8360     4.1840    19.0290 h1         1 0I1       0.070700
     28 H2         -16.6990     4.4770    20.3800 h1         1 0I1       0.070700
     29 H3         -17.2150     1.9250    20.2060 hc         1 0I1       0.053700
     30 H4         -14.5690     0.8740    22.6970 h1         1 0I1       0.042200
     31 H5         -14.8560     1.0350    20.9590 h1         1 0I1       0.042200
     32 H6         -18.8250     0.0790    20.3740 hc         1 0I1       0.062950
     33 H7         -18.5560    -0.0370    22.1120 hc         1 0I1       0.062950
     34 H8         -13.1880    -0.5080    21.5970 h4         1 0I1       0.022100
     35 H9         -12.5370    -4.4830    22.4310 h5         1 0I1       0.054100
     36 H10        -17.1290    -1.4060    24.0010 ha         1 0I1       0.132500
     37 H11        -19.3930    -2.0670    24.7730 ha         1 0I1       0.136500
     38 H12        -16.7440    -5.1410    21.9430 ha         1 0I1       0.132500
     39 H13        -17.9170     6.5910    20.8690 h1         1 0I1       0.077700
     40 H14        -19.4900     5.3010    22.3180 h1         1 0I1       0.070700
     41 H15        -20.4850     4.9780    20.8690 h1         1 0I1       0.070700
     42 H16        -16.0270     2.8100    22.1710 hc         1 0I1       0.062950
     43 H17        -16.8290     1.6330    23.2140 hc         1 0I1       0.062950
     44 H18        -17.2710    -1.7710    20.9430 h1         1 0I1       0.042200
     45 H19        -16.4940    -0.5690    19.9170 h1         1 0I1       0.042200
     46 H20        -19.0350    -5.7780    22.6740 ha         1 0I1       0.136500
@<TRIPOS>BOND
     1     1    13 1   
     2     1    15 1   
     3     1    27 1   
     4     1    28 1   
     5     2     3 1   
     6     2    15 1   
     7     2    16 2   
     8     3     5 1   
     9     3    17 1   
    10     3    29 1   
    11     4    17 1   
    12     4    18 1   
    13     4    30 1   
    14     4    31 1   
    15     5    19 1   
    16     5    32 1   
    17     5    33 1   
    18     6    20 ar  
    19     6    21 ar  
    20     6    34 1   
    21     7    21 ar  
    22     7    22 ar  
    23     7    35 1   
    24     8     9 ar  
    25     8    11 ar  
    26     8    23 1   
    27     9    10 ar  
    28     9    36 1   
    29    10    24 ar  
    30    10    37 1   
    31    11    26 ar  
    32    11    38 1   
    33    12    13 1   
    34    13    14 1   
    35    13    39 1   
    36    14    15 1   
    37    14    40 1   
    38    14    41 1   
    39    17    42 1   
    40    17    43 1   
    41    18    19 1   
    42    18    20 1   
    43    19    44 1   
    44    19    45 1   
    45    20    23 ar  
    46    22    23 ar  
    47    24    25 1   
    48    24    26 ar  
    49    26    46 1   
@<TRIPOS>SUBSTRUCTURE
     1 0I1         1 TEMP              0 ****  ****    0 ROOT
