@<TRIPOS>MOLECULE
0I1
   46    49     1     0     0
SMALL
No Charge or Current Charge


@<TRIPOS>ATOM
      1 C5         -18.1770     5.1430    21.1050 cy         1 0I1       0.078000
      2 C6         -18.0940     2.9390    21.6230 c          1 0I1       0.616100
      3 C8         -17.0860     1.8210    21.2640 c6         1 0I1      -0.134700
      4 C10        -14.8530     0.6720    21.7530 c6         1 0I1       0.197800
      5 C13        -17.7500     0.4260    21.1300 c6         1 0I1      -0.070900
      6 C15        -13.4680    -1.9570    21.5730 ca         1 0I1       0.044900
      7 C17        -13.4140    -4.1500    22.2290 ca         1 0I1       0.093900
      8 C20        -16.8520    -3.1360    22.9610 cp         1 0I1      -0.173500
      9 C21        -17.4300    -2.0820    23.7160 ca         1 0I1      -0.049500
     10 C22        -18.7550    -2.1640    24.1780 ca         1 0I1      -0.159500
     11 C26        -17.6460    -4.2850    22.7060 ca         1 0I1      -0.049500
     12 F1         -19.6310     6.1130    19.3400 f          1 0I1      -0.249000
     13 C2         -19.5990     5.4410    20.5270 cy         1 0I1       0.153300
     14 C3         -19.7790     3.8900    20.4380 cy         1 0I1       0.078000
     15 N4         -18.2790     3.7790    20.4760 nj         1 0I1      -0.432800
     16 O7         -18.5750     2.9480    22.7550 o          1 0I1      -0.600100
     17 C9         -15.8340     1.7910    22.1800 c6         1 0I1      -0.070900
     18 N11        -15.5470    -0.6460    21.6800 nh         1 0I1      -0.790400
     19 C12        -16.7110    -0.6560    20.7460 c6         1 0I1       0.197800
     20 C14        -14.8380    -1.8620    21.9240 ca         1 0I1       0.196000
     21 N16        -12.7540    -3.0910    21.7260 nb         1 0I1      -0.152000
     22 N18        -14.7090    -4.1850    22.5960 nb         1 0I1      -0.165000
     23 C19        -15.4340    -3.0510    22.4680 cp         1 0I1       0.156500
     24 C23        -19.5210    -3.3040    23.9010 ca         1 0I1       0.178000
     25 F24        -20.7940    -3.3820    24.3450 f          1 0I1      -0.181000
     26 C25        -18.9710    -4.3660    23.1700 ca         1 0I1      -0.159500
     27 H1         -17.3860     5.7580    20.6610 h1         1 0I1       0.070700
     28 H2         -18.1230     5.2040    22.1990 h1         1 0I1       0.070700
     29 H3         -16.7130     2.0520    20.2560 hc         1 0I1       0.053700
     30 H4         -14.0290     0.6330    22.4810 h1         1 0I1       0.042200
     31 H5         -14.4170     0.9220    20.7740 h1         1 0I1       0.042200
     32 H6         -18.5490     0.4540    20.3770 hc         1 0I1       0.062950
     33 H7         -18.2280     0.1500    22.0800 hc         1 0I1       0.062950
     34 H8         -12.9300    -1.1160    21.1400 h4         1 0I1       0.022100
     35 H9         -12.8460    -5.0710    22.3480 h5         1 0I1       0.054100
     36 H10        -16.8440    -1.1950    23.9480 ha         1 0I1       0.132500
     37 H11        -19.1860    -1.3470    24.7510 ha         1 0I1       0.136500
     38 H12        -17.2350    -5.1150    22.1350 ha         1 0I1       0.132500
     39 H13        -20.2750     5.9280    21.2370 h1         1 0I1       0.077700
     40 H14        -20.3480     3.4630    21.2730 h1         1 0I1       0.070700
     41 H15        -20.2070     3.5520    19.4880 h1         1 0I1       0.070700
     42 H16        -15.3210     2.7620    22.1570 hc         1 0I1       0.062950
     43 H17        -16.1390     1.6210    23.2220 hc         1 0I1       0.062950
     44 H18        -17.2050    -1.6380    20.7450 h1         1 0I1       0.042200
     45 H19        -16.3620    -0.4710    19.7190 h1         1 0I1       0.042200
     46 H20        -19.5700    -5.2480    22.9620 ha         1 0I1       0.136500
@<TRIPOS>BOND
     1     1    13 1   
     2     1    15 1   
     3     1    27 1   
     4     1    28 1   
     5     2     3 1   
     6     2    15 1   
     7     2    16 2   
     8     3     5 1   
     9     3    17 1   
    10     3    29 1   
    11     4    17 1   
    12     4    18 1   
    13     4    30 1   
    14     4    31 1   
    15     5    19 1   
    16     5    32 1   
    17     5    33 1   
    18     6    20 ar  
    19     6    21 ar  
    20     6    34 1   
    21     7    21 ar  
    22     7    22 ar  
    23     7    35 1   
    24     8     9 ar  
    25     8    11 ar  
    26     8    23 1   
    27     9    10 ar  
    28     9    36 1   
    29    10    24 ar  
    30    10    37 1   
    31    11    26 ar  
    32    11    38 1   
    33    12    13 1   
    34    13    14 1   
    35    13    39 1   
    36    14    15 1   
    37    14    40 1   
    38    14    41 1   
    39    17    42 1   
    40    17    43 1   
    41    18    19 1   
    42    18    20 1   
    43    19    44 1   
    44    19    45 1   
    45    20    23 ar  
    46    22    23 ar  
    47    24    25 1   
    48    24    26 ar  
    49    26    46 1   
@<TRIPOS>SUBSTRUCTURE
     1 0I1         1 TEMP              0 ****  ****    0 ROOT
