@<TRIPOS>MOLECULE
0I2
   48    50     1     0     0
SMALL
No Charge or Current Charge


@<TRIPOS>ATOM
      1 C02         18.7340    16.7600    -6.9380 ce         1 0I2       0.691800
      2 C04         18.8100    18.2030    -7.0500 cc         1 0I2      -0.314900
      3 C05         19.7270    18.9710    -7.7270 cd         1 0I2      -0.092000
      4 C06         19.5460    20.3860    -7.6230 cd         1 0I2      -0.043000
      5 C07         18.4740    20.6960    -6.7990 cc         1 0I2      -0.224300
      6 C08         17.8500    22.0300    -6.4710 c3         1 0I2       0.177300
      7 C10         17.3520    22.6500    -4.0510 c          1 0I2       0.596100
      8 C12         16.0460    21.8110    -3.9660 c3         1 0I2      -0.129700
      9 C13         16.0580    20.8810    -2.7210 c3         1 0I2      -0.054400
     10 C14         15.4100    21.4600    -1.4410 c3         1 0I2      -0.106400
     11 C15         13.8680    21.3250    -1.3980 c3         1 0I2       0.155600
     12 C17         13.4510    22.0940    -3.7090 c3         1 0I2       0.163600
     13 C18         14.8040    22.7390    -4.0800 c3         1 0I2      -0.103400
     14 C20         20.5000    21.3410    -8.2460 ca         1 0I2      -0.029000
     15 C21         20.7740    22.6120    -7.6900 ca         1 0I2      -0.097500
     16 C22         21.6880    23.4890    -8.3010 ca         1 0I2      -0.109000
     17 C23         22.3520    23.1090    -9.4760 ca         1 0I2      -0.102000
     18 C24         22.1060    21.8460   -10.0340 ca         1 0I2      -0.109000
     19 C25         21.1940    20.9690    -9.4210 ca         1 0I2      -0.097500
     20 N01         19.3470    16.0030    -7.8550 nv         1 0I2      -1.036200
     21 N03         18.2300    16.1820    -5.9320 n2         1 0I2      -0.840100
     22 N09         18.2030    22.4880    -5.1230 ns         1 0I2      -0.512900
     23 O11         17.6870    23.4110    -3.1550 o          1 0I2      -0.599100
     24 O16         13.2250    22.2580    -2.2930 os         1 0I2      -0.462000
     25 S19         17.6760    19.2410    -6.2060 ss         1 0I2       0.225000
     26 H051        20.5490    18.5250    -8.2790 ha         1 0I2       0.145000
     27 H082        18.1770    22.7830    -7.1990 h1         1 0I2       0.067700
     28 H081        16.7610    21.9690    -6.5880 h1         1 0I2       0.067700
     29 H121        15.9960    21.1370    -4.8240 hc         1 0I2       0.046700
     30 H131        15.5510    19.9400    -2.9720 hc         1 0I2       0.045200
     31 H132        17.0960    20.6010    -2.4990 hc         1 0I2       0.045200
     32 H142        15.8090    20.9070    -0.5830 hc         1 0I2       0.060700
     33 H141        15.7040    22.5060    -1.2930 hc         1 0I2       0.060700
     34 H151        13.5360    21.5250    -0.3710 h1         1 0I2       0.041700
     35 H152        13.5780    20.2930    -1.6370 h1         1 0I2       0.041700
     36 H172        12.6620    22.6220    -4.2600 h1         1 0I2       0.043200
     37 H171        13.4180    21.0390    -4.0130 h1         1 0I2       0.043200
     38 H181        14.9450    23.6360    -3.4640 hc         1 0I2       0.057200
     39 H182        14.7420    23.0970    -5.1150 hc         1 0I2       0.057200
     40 H211        20.3210    22.9210    -6.7570 ha         1 0I2       0.114000
     41 H221        21.8900    24.4600    -7.8540 ha         1 0I2       0.116500
     42 H231        23.0600    23.7870    -9.9480 ha         1 0I2       0.116000
     43 H241        22.6200    21.5450   -10.9440 ha         1 0I2       0.116500
     44 H251        21.0100    20.0060    -9.8890 ha         1 0I2       0.114000
     45 H012        19.0670    15.0310    -7.8280 hn         1 0I2       0.475500
     46 H031        17.9500    16.9090    -5.2640 hn         1 0I2       0.386400
     47 H091        19.0810    22.9820    -5.0300 hn         1 0I2       0.315500
     48 H011        19.4270    16.4180    -8.7740 hn         1 0I2       0.475500
@<TRIPOS>BOND
     1     1     2 1   
     2     1    20 1   
     3     1    21 2   
     4     2     3 2   
     5     2    25 1   
     6     3     4 1   
     7     3    26 1   
     8     4     5 2   
     9     4    14 1   
    10     5     6 1   
    11     5    25 1   
    12     6    22 1   
    13     6    27 1   
    14     6    28 1   
    15     7     8 1   
    16     7    22 1   
    17     7    23 2   
    18     8     9 1   
    19     8    13 1   
    20     8    29 1   
    21     9    10 1   
    22     9    30 1   
    23     9    31 1   
    24    10    11 1   
    25    10    32 1   
    26    10    33 1   
    27    11    24 1   
    28    11    34 1   
    29    11    35 1   
    30    12    13 1   
    31    12    24 1   
    32    12    36 1   
    33    12    37 1   
    34    13    38 1   
    35    13    39 1   
    36    14    15 ar  
    37    14    19 ar  
    38    15    16 ar  
    39    15    40 1   
    40    16    17 ar  
    41    16    41 1   
    42    17    18 ar  
    43    17    42 1   
    44    18    19 ar  
    45    18    43 1   
    46    19    44 1   
    47    20    45 1   
    48    20    48 1   
    49    21    46 1   
    50    22    47 1   
@<TRIPOS>SUBSTRUCTURE
     1 0I2         1 TEMP              0 ****  ****    0 ROOT
