@<TRIPOS>MOLECULE
0I2
   48    50     1     0     0
SMALL
abcg2


@<TRIPOS>ATOM
      1 C02         19.1850    16.6760    -6.6730 ce         1 0I2       0.691800
      2 C04         19.1440    18.1430    -6.8300 cc         1 0I2      -0.314900
      3 C05         19.9160    18.9330    -7.6360 cd         1 0I2      -0.092000
      4 C06         19.6550    20.3290    -7.4910 cd         1 0I2      -0.043000
      5 C07         18.6510    20.5740    -6.5790 cc         1 0I2      -0.224300
      6 C08         18.0310    21.8900    -6.2050 c3         1 0I2       0.177300
      7 C10         17.5530    22.1230    -3.7250 c          1 0I2       0.596100
      8 C12         16.1370    21.5870    -3.8880 c3         1 0I2      -0.129700
      9 C13         15.7270    20.7210    -2.6800 c3         1 0I2      -0.054400
     10 C14         15.0080    21.4250    -1.5260 c3         1 0I2      -0.106400
     11 C15         13.5280    21.6910    -1.7840 c3         1 0I2       0.155600
     12 C17         13.7220    22.5380    -4.0300 c3         1 0I2       0.163600
     13 C18         15.2200    22.7950    -4.1820 c3         1 0I2      -0.103400
     14 C20         20.3890    21.3580    -8.2560 ca         1 0I2      -0.029000
     15 C21         20.9910    22.4490    -7.6210 ca         1 0I2      -0.097500
     16 C22         21.6860    23.4030    -8.3550 ca         1 0I2      -0.109000
     17 C23         21.7960    23.2790    -9.7360 ca         1 0I2      -0.102000
     18 C24         21.2120    22.1910   -10.3780 ca         1 0I2      -0.109000
     19 C25         20.5160    21.2380    -9.6440 ca         1 0I2      -0.097500
     20 N01         19.7100    16.0040    -7.7410 nv         1 0I2      -1.036200
     21 N03         18.8130    16.0340    -5.6190 n2         1 0I2      -0.840100
     22 N09         18.3070    22.3050    -4.8350 ns         1 0I2      -0.512900
     23 O11         17.9950    22.4420    -2.6190 o          1 0I2      -0.599100
     24 O16         13.2510    22.7440    -2.7010 os         1 0I2      -0.462000
     25 S19         18.0480    19.1040    -5.8960 ss         1 0I2       0.225000
     26 H051        20.6860    18.5440    -8.2860 ha         1 0I2       0.145000
     27 H082        18.4160    22.6570    -6.8740 h1         1 0I2       0.067700
     28 H081        16.9550    21.8580    -6.3590 h1         1 0I2       0.067700
     29 H121        16.1010    20.9330    -4.7600 hc         1 0I2       0.046700
     30 H131        15.0720    19.9260    -3.0480 hc         1 0I2       0.045200
     31 H132        16.6210    20.2250    -2.3010 hc         1 0I2       0.045200
     32 H142        15.0600    20.7760    -0.6470 hc         1 0I2       0.060700
     33 H141        15.5100    22.3570    -1.2580 hc         1 0I2       0.060700
     34 H151        13.0390    21.9910    -0.8560 h1         1 0I2       0.041700
     35 H152        13.0500    20.7660    -2.1370 h1         1 0I2       0.041700
     36 H172        13.1740    23.2570    -4.6410 h1         1 0I2       0.043200
     37 H171        13.4540    21.5310    -4.3750 h1         1 0I2       0.043200
     38 H181        15.4760    23.6290    -3.5240 hc         1 0I2       0.057200
     39 H182        15.4110    23.1350    -5.2030 hc         1 0I2       0.057200
     40 H211        20.9390    22.5380    -6.5440 ha         1 0I2       0.114000
     41 H221        22.1490    24.2390    -7.8450 ha         1 0I2       0.116500
     42 H231        22.3380    24.0220   -10.3080 ha         1 0I2       0.116000
     43 H241        21.2940    22.0850   -11.4530 ha         1 0I2       0.116500
     44 H251        20.0560    20.3980   -10.1490 ha         1 0I2       0.114000
     45 H012        19.6440    14.9970    -7.7130 hn         1 0I2       0.475500
     46 H031        18.5450    16.6750    -4.8770 hn         1 0I2       0.386400
     47 H091        19.2360    22.6590    -4.6520 hn         1 0I2       0.315500
     48 H011        19.6440    16.4200    -8.6550 hn         1 0I2       0.475500
@<TRIPOS>BOND
     1     1     2 1   
     2     1    20 1   
     3     1    21 2   
     4     2     3 2   
     5     2    25 1   
     6     3     4 1   
     7     3    26 1   
     8     4     5 2   
     9     4    14 1   
    10     5     6 1   
    11     5    25 1   
    12     6    22 1   
    13     6    27 1   
    14     6    28 1   
    15     7     8 1   
    16     7    22 1   
    17     7    23 2   
    18     8     9 1   
    19     8    13 1   
    20     8    29 1   
    21     9    10 1   
    22     9    30 1   
    23     9    31 1   
    24    10    11 1   
    25    10    32 1   
    26    10    33 1   
    27    11    24 1   
    28    11    34 1   
    29    11    35 1   
    30    12    13 1   
    31    12    24 1   
    32    12    36 1   
    33    12    37 1   
    34    13    38 1   
    35    13    39 1   
    36    14    15 ar  
    37    14    19 ar  
    38    15    16 ar  
    39    15    40 1   
    40    16    17 ar  
    41    16    41 1   
    42    17    18 ar  
    43    17    42 1   
    44    18    19 ar  
    45    18    43 1   
    46    19    44 1   
    47    20    45 1   
    48    20    48 1   
    49    21    46 1   
    50    22    47 1   
@<TRIPOS>SUBSTRUCTURE
     1 0I2         1 TEMP              0 ****  ****    0 ROOT
