@<TRIPOS>MOLECULE
0I5
   62    63     1     0     0
SMALL
abcg2


@<TRIPOS>ATOM
      1 O1          -7.1970    -1.1150     1.7030 os         1 0I5      -0.444000
      2 C2          -6.9410    -1.8710     0.5400 c6         1 0I5       0.141600
      3 C3          -6.0930    -1.0960    -0.4480 c6         1 0I5       0.064000
      4 N4          -4.8670    -0.6480     0.1900 n          1 0I5      -0.421800
      5 C5          -5.0790     0.0510     1.4440 c6         1 0I5       0.064000
      6 C6          -5.9920    -0.7710     2.3410 c6         1 0I5       0.141600
      7 C           -3.7230    -0.5630    -0.5550 c          1 0I5       0.659100
      8 O           -3.5920    -1.1660    -1.6160 o          1 0I5      -0.645100
      9 N           -2.7160     0.1890    -0.0360 ns         1 0I5      -0.515900
     10 CA          -1.4560     0.3330    -0.7250 c3         1 0I5       0.054700
     11 C1          -0.4140     0.7030     0.3200 c          1 0I5       0.595100
     12 O2          -0.6750     1.4470     1.2550 o          1 0I5      -0.622100
     13 CB          -1.5050     1.4190    -1.8140 c3         1 0I5      -0.097400
     14 CG          -0.2610     1.5360    -2.6980 c3         1 0I5      -0.062700
     15 CD1         -0.0250     0.2730    -3.5220 c3         1 0I5      -0.088100
     16 CD2         -0.3960     2.7450    -3.6180 c3         1 0I5      -0.088100
     17 N1           0.8180     0.2070     0.1360 ns         1 0I5      -0.489900
     18 CA1          1.9000     0.5890     1.0070 c3         1 0I5       0.013700
     19 C4           2.0540     2.1050     1.0370 c          1 0I5       0.538100
     20 O3           1.9580     2.7910     0.0540 o          1 0I5      -0.474100
     21 CB1          3.2200    -0.0210     0.5320 c3         1 0I5      -0.089400
     22 CG1          3.2490    -1.5470     0.6340 c3         1 0I5      -0.029100
     23 CD           4.5880    -2.0870     0.2150 ca         1 0I5      -0.088300
     24 CE1          5.6050    -2.2640     1.1510 ca         1 0I5      -0.105500
     25 CE2          4.8560    -2.3730    -1.1220 ca         1 0I5      -0.105500
     26 CZ1          6.8580    -2.7190     0.7630 ca         1 0I5      -0.106500
     27 CZ2          6.1080    -2.8260    -1.5150 ca         1 0I5      -0.106500
     28 CH           7.1140    -3.0010    -0.5730 ca         1 0I5      -0.106000
     29 CM           2.3900     2.6630     2.3930 c3         1 0I5       0.087600
     30 H21         -6.4360    -2.8120     0.7980 h1         1 0I5       0.054450
     31 H22         -7.9030    -2.1160     0.0870 h1         1 0I5       0.054450
     32 H31         -5.8570    -1.7320    -1.2970 h1         1 0I5       0.057450
     33 H32         -6.6580    -0.2330    -0.8230 h1         1 0I5       0.057450
     34 H51         -4.1410     0.1750     1.9830 h1         1 0I5       0.057450
     35 H52         -5.5070     1.0460     1.2740 h1         1 0I5       0.057450
     36 H61         -6.2400    -0.1950     3.2330 h1         1 0I5       0.054450
     37 H62         -5.4550    -1.6760     2.6600 h1         1 0I5       0.054450
     38 H           -2.9020     0.8800     0.6720 hn         1 0I5       0.329500
     39 HA          -1.2050    -0.6290    -1.1730 h1         1 0I5       0.086700
     40 HB2         -2.3700     1.2060    -2.4490 hc         1 0I5       0.059700
     41 HB3         -1.7040     2.3810    -1.3300 hc         1 0I5       0.059700
     42 HG           0.6120     1.7040    -2.0600 hc         1 0I5       0.057700
     43 HD11         0.8770     0.3670    -4.1280 hc         1 0I5       0.034033
     44 HD12         0.0910    -0.6250    -2.9110 hc         1 0I5       0.034033
     45 HD13        -0.8620     0.0930    -4.2020 hc         1 0I5       0.034033
     46 HD21        -0.5140     3.6690    -3.0500 hc         1 0I5       0.034033
     47 HD22         0.4860     2.8560    -4.2520 hc         1 0I5       0.034033
     48 HD23        -1.2640     2.6420    -4.2740 hc         1 0I5       0.034033
     49 H1           1.0050    -0.3930    -0.6510 hn         1 0I5       0.331500
     50 HA1          1.6980     0.2340     2.0250 h1         1 0I5       0.070700
     51 HB1          3.4150     0.2970    -0.4960 hc         1 0I5       0.061700
     52 HB21         4.0320     0.3860     1.1410 hc         1 0I5       0.061700
     53 HG1          3.0340    -1.8420     1.6640 hc         1 0I5       0.049700
     54 HG2          2.4650    -1.9880     0.0140 hc         1 0I5       0.049700
     55 HE1          5.4120    -2.0490     2.1960 ha         1 0I5       0.109500
     56 HE2          4.0760    -2.2450    -1.8630 ha         1 0I5       0.109500
     57 HZ1          7.6340    -2.8560     1.5060 ha         1 0I5       0.114500
     58 HZ2          6.2980    -3.0460    -2.5580 ha         1 0I5       0.114500
     59 HH1          8.0890    -3.3580    -0.8780 ha         1 0I5       0.115000
     60 F1           2.6650     4.0070     2.3120 f          1 0I5      -0.240000
     61 HM1          1.5360     2.5000     3.0570 h1         1 0I5       0.066700
     62 HM2          3.2500     2.1350     2.8160 h1         1 0I5       0.066700
@<TRIPOS>BOND
     1     1     2 1   
     2     1     6 1   
     3     2     3 1   
     4     2    30 1   
     5     2    31 1   
     6     3     4 1   
     7     3    32 1   
     8     3    33 1   
     9     4     5 1   
    10     4     7 1   
    11     5     6 1   
    12     5    34 1   
    13     5    35 1   
    14     6    36 1   
    15     6    37 1   
    16     7     8 2   
    17     7     9 1   
    18     9    10 1   
    19     9    38 1   
    20    10    11 1   
    21    10    13 1   
    22    10    39 1   
    23    11    12 2   
    24    11    17 1   
    25    13    14 1   
    26    13    40 1   
    27    13    41 1   
    28    14    15 1   
    29    14    16 1   
    30    14    42 1   
    31    15    43 1   
    32    15    44 1   
    33    15    45 1   
    34    16    46 1   
    35    16    47 1   
    36    16    48 1   
    37    17    18 1   
    38    17    49 1   
    39    18    19 1   
    40    18    21 1   
    41    18    50 1   
    42    19    20 2   
    43    19    29 1   
    44    21    22 1   
    45    21    51 1   
    46    21    52 1   
    47    22    23 1   
    48    22    53 1   
    49    22    54 1   
    50    23    24 ar  
    51    23    25 ar  
    52    24    26 ar  
    53    24    55 1   
    54    25    27 ar  
    55    25    56 1   
    56    26    28 ar  
    57    26    57 1   
    58    27    28 ar  
    59    27    58 1   
    60    28    59 1   
    61    29    60 1   
    62    29    61 1   
    63    29    62 1   
@<TRIPOS>SUBSTRUCTURE
     1 0I5         1 TEMP              0 ****  ****    0 ROOT
