@<TRIPOS>MOLECULE
0I5
   62    63     1     0     0
SMALL
No Charge or Current Charge


@<TRIPOS>ATOM
      1 O1          -7.3030    -1.1170     1.4760 os         1 0I5      -0.444000
      2 C2          -7.0130    -2.1870     0.5610 c6         1 0I5       0.141600
      3 C3          -5.9140    -1.7620    -0.4460 c6         1 0I5       0.064000
      4 N4          -4.7400    -1.0380     0.1440 n          1 0I5      -0.421800
      5 C5          -4.9960    -0.2590     1.4040 c6         1 0I5       0.064000
      6 C6          -6.1640    -0.7770     2.2850 c6         1 0I5       0.141600
      7 C           -3.5960    -0.8200    -0.6480 c          1 0I5       0.659100
      8 O           -3.4550    -1.3370    -1.7450 o          1 0I5      -0.645100
      9 N           -2.6400     0.0040    -0.1080 ns         1 0I5      -0.515900
     10 CA          -1.3720     0.3900    -0.7650 c3         1 0I5       0.054700
     11 C1          -0.3360     0.8000     0.3250 c          1 0I5       0.595100
     12 O2          -0.6610     1.1960     1.4390 o          1 0I5      -0.622100
     13 CB          -1.6480     1.5240    -1.7960 c3         1 0I5      -0.097400
     14 CG          -0.4540     1.9640    -2.6910 c3         1 0I5      -0.062700
     15 CD1          0.1040     0.8080    -3.5570 c3         1 0I5      -0.088100
     16 CD2         -0.8500     3.1650    -3.5790 c3         1 0I5      -0.088100
     17 N1           0.9910     0.6650    -0.0270 ns         1 0I5      -0.489900
     18 CA1          2.1300     0.9640     0.8690 c3         1 0I5       0.013700
     19 C4           2.4420     2.4890     0.8810 c          1 0I5       0.538100
     20 O3           2.2170     3.2100    -0.0880 o          1 0I5      -0.474100
     21 CB1          3.3760     0.1180     0.5060 c3         1 0I5      -0.089400
     22 CG1          3.1520    -1.4070     0.6180 c3         1 0I5      -0.029100
     23 CD           4.4180    -2.1910     0.3000 ca         1 0I5      -0.088300
     24 CE1          5.3050    -2.5590     1.3300 ca         1 0I5      -0.105500
     25 CE2          4.7170    -2.5460    -1.0300 ca         1 0I5      -0.105500
     26 CZ1          6.4760    -3.2780     1.0340 ca         1 0I5      -0.106500
     27 CZ2          5.8890    -3.2640    -1.3260 ca         1 0I5      -0.106500
     28 CH           6.7690    -3.6310    -0.2940 ca         1 0I5      -0.106000
     29 CM           3.0320     3.0310     2.1990 c3         1 0I5       0.087600
     30 H21         -6.6790    -3.0680     1.1290 h1         1 0I5       0.054450
     31 H22         -7.9290    -2.4610     0.0190 h1         1 0I5       0.054450
     32 H31         -5.5610    -2.6620    -0.9700 h1         1 0I5       0.057450
     33 H32         -6.3710    -1.1110    -1.2040 h1         1 0I5       0.057450
     34 H51         -4.0910    -0.2530     2.0270 h1         1 0I5       0.057450
     35 H52         -5.2070     0.7840     1.1280 h1         1 0I5       0.057450
     36 H61         -6.4520    -0.0070     3.0140 h1         1 0I5       0.054450
     37 H62         -5.8420    -1.6670     2.8440 h1         1 0I5       0.054450
     38 H           -2.8250     0.3720     0.8160 hn         1 0I5       0.329500
     39 HA          -0.9750    -0.4930    -1.2810 h1         1 0I5       0.086700
     40 HB2         -2.4670     1.2070    -2.4550 hc         1 0I5       0.059700
     41 HB3         -2.0210     2.3990    -1.2490 hc         1 0I5       0.059700
     42 HG           0.3550     2.3170    -2.0400 hc         1 0I5       0.057700
     43 HD11         0.9240     1.1650    -4.1930 hc         1 0I5       0.034033
     44 HD12         0.4980    -0.0060    -2.9400 hc         1 0I5       0.034033
     45 HD13        -0.6770     0.3980    -4.2080 hc         1 0I5       0.034033
     46 HD21        -1.1940     4.0060    -2.9650 hc         1 0I5       0.034033
     47 HD22         0.0060     3.5090    -4.1710 hc         1 0I5       0.034033
     48 HD23        -1.6580     2.8910    -4.2700 hc         1 0I5       0.034033
     49 H1           1.1860     0.3440    -0.9680 hn         1 0I5       0.331500
     50 HA1          1.8360     0.6970     1.8930 h1         1 0I5       0.070700
     51 HB1          3.6980     0.3630    -0.5140 hc         1 0I5       0.061700
     52 HB21         4.2050     0.3950     1.1700 hc         1 0I5       0.061700
     53 HG1          2.8050    -1.6470     1.6310 hc         1 0I5       0.049700
     54 HG2          2.3470    -1.7140    -0.0610 hc         1 0I5       0.049700
     55 HE1          5.0880    -2.2880     2.3610 ha         1 0I5       0.109500
     56 HE2          4.0420    -2.2640    -1.8360 ha         1 0I5       0.109500
     57 HZ1          7.1580    -3.5600     1.8340 ha         1 0I5       0.114500
     58 HZ2          6.1140    -3.5360    -2.3550 ha         1 0I5       0.114500
     59 HH1          7.6750    -4.1870    -0.5230 ha         1 0I5       0.115000
     60 F1           3.3230     4.3600     2.1510 f          1 0I5      -0.240000
     61 HM1          2.3070     2.8560     3.0020 h1         1 0I5       0.066700
     62 HM2          3.9490     2.4760     2.4280 h1         1 0I5       0.066700
@<TRIPOS>BOND
     1     1     2 1   
     2     1     6 1   
     3     2     3 1   
     4     2    30 1   
     5     2    31 1   
     6     3     4 1   
     7     3    32 1   
     8     3    33 1   
     9     4     5 1   
    10     4     7 1   
    11     5     6 1   
    12     5    34 1   
    13     5    35 1   
    14     6    36 1   
    15     6    37 1   
    16     7     8 2   
    17     7     9 1   
    18     9    10 1   
    19     9    38 1   
    20    10    11 1   
    21    10    13 1   
    22    10    39 1   
    23    11    12 2   
    24    11    17 1   
    25    13    14 1   
    26    13    40 1   
    27    13    41 1   
    28    14    15 1   
    29    14    16 1   
    30    14    42 1   
    31    15    43 1   
    32    15    44 1   
    33    15    45 1   
    34    16    46 1   
    35    16    47 1   
    36    16    48 1   
    37    17    18 1   
    38    17    49 1   
    39    18    19 1   
    40    18    21 1   
    41    18    50 1   
    42    19    20 2   
    43    19    29 1   
    44    21    22 1   
    45    21    51 1   
    46    21    52 1   
    47    22    23 1   
    48    22    53 1   
    49    22    54 1   
    50    23    24 ar  
    51    23    25 ar  
    52    24    26 ar  
    53    24    55 1   
    54    25    27 ar  
    55    25    56 1   
    56    26    28 ar  
    57    26    57 1   
    58    27    28 ar  
    59    27    58 1   
    60    28    59 1   
    61    29    60 1   
    62    29    61 1   
    63    29    62 1   
@<TRIPOS>SUBSTRUCTURE
     1 0I5         1 TEMP              0 ****  ****    0 ROOT
