@<TRIPOS>MOLECULE
0IE
  100   101     1     0     0
SMALL
No Charge or Current Charge


@<TRIPOS>ATOM
      1 O1          90.6500   108.8110   114.8920 o          1 0IE      -0.530100
      2 C7          93.1730   111.2560   109.2540 ce         1 0IE      -0.081200
      3 C6          92.5310   110.9540   110.5500 ce         1 0IE      -0.132000
      4 C5          91.7710   109.8630   110.8590 cf         1 0IE      -0.207000
      5 C4          91.1670   109.6280   112.1670 cf         1 0IE      -0.084000
      6 C3          90.4480   108.5250   112.5450 ce         1 0IE      -0.220400
      7 C2          89.9790   108.3750   113.9630 c          1 0IE       0.581300
      8 C10         95.7130   113.7270   107.9630 ce         1 0IE      -0.155000
      9 C11         96.4590   114.1510   106.7670 ce         1 0IE      -0.186000
     10 C12         97.3050   115.2180   106.6530 cf         1 0IE      -0.052200
     11 C13         97.9680   115.4900   105.3730 cf         1 0IE      -0.182000
     12 C14         99.0040   116.3470   105.1440 ce         1 0IE      -0.163000
     13 C15         99.6120   116.5580   103.8200 ce         1 0IE      -0.186000
     14 C16        100.6900   117.3420   103.5170 cf         1 0IE      -0.055200
     15 C17        101.1590   117.4320   102.1310 cf         1 0IE      -0.194000
     16 C18        102.0310   118.3450   101.6340 c2         1 0IE      -0.190200
     17 C19        102.4720   118.3860   100.1710 c6         1 0IE       0.011700
     18 C20         90.3140   107.2920   111.6690 c3         1 0IE       0.208800
     19 C21         92.6950   110.4660   108.0370 c3         1 0IE      -0.052900
     20 C22         97.5470   116.2010   107.7960 c3         1 0IE      -0.057900
     21 C23        101.4890   118.0880   104.5830 c3         1 0IE      -0.056900
     22 C24        103.9100   117.7840    99.9800 c6         1 0IE      -0.029000
     23 C25        104.3490   118.0270    98.5070 c6         1 0IE      -0.106400
     24 C26        104.4010   119.5320    98.1600 c6         1 0IE       0.209500
     25 C27        103.1710   120.2710    98.6460 c2         1 0IE      -0.215200
     26 C28        102.3060   119.7860    99.5550 c2         1 0IE      -0.101400
     27 C30         88.5720   107.7910   114.2160 c3         1 0IE      -0.130200
     28 C31         87.6490   108.7530   115.0210 c2         1 0IE      -0.108400
     29 C32         87.2160   108.2460   116.4270 c6         1 0IE       0.006200
     30 C33         86.1300   109.2140   117.0480 c6         1 0IE      -0.105400
     31 C34         86.4150   110.7340   116.8420 c6         1 0IE       0.171300
     32 C35         86.4610   111.0000   115.3250 c6         1 0IE      -0.039200
     33 C36         87.2810   109.9710   114.5350 c2         1 0IE      -0.086400
     34 C37         87.6180   110.4840   113.1400 c3         1 0IE      -0.060900
     35 C38         86.5920   106.8130   116.3700 c3         1 0IE      -0.081600
     36 C39         88.4640   108.2030   117.3620 c3         1 0IE      -0.081600
     37 C41        101.0530   120.5460    99.9610 c3         1 0IE      -0.052900
     38 C43        104.9460   118.4130   100.9720 c3         1 0IE      -0.085600
     39 C44        103.8980   116.2470   100.2570 c3         1 0IE      -0.085600
     40 C8          94.1070   112.2510   109.1720 cf         1 0IE      -0.160000
     41 C9          94.8390   112.6850   107.9840 cf         1 0IE      -0.186000
     42 O29         89.2700   107.4670   110.7100 oh         1 0IE      -0.657000
     43 O40         85.3960   111.5260   117.4620 oh         1 0IE      -0.662000
     44 O42        104.5150   119.7030    96.7480 oh         1 0IE      -0.656000
     45 H1          92.7070   111.6820   111.3440 ha         1 0IE       0.172000
     46 H2          91.5970   109.1070   110.0930 ha         1 0IE       0.181000
     47 H3          91.2980   110.4250   112.9050 ha         1 0IE       0.193000
     48 H4          95.8790   114.2750   108.8910 ha         1 0IE       0.172000
     49 H5          96.3220   113.5220   105.8860 ha         1 0IE       0.171000
     50 H6          97.5960   114.9240   104.5170 ha         1 0IE       0.171000
     51 H7          99.4170   116.9130   105.9780 ha         1 0IE       0.174000
     52 H8          99.1240   116.0350   102.9950 ha         1 0IE       0.170000
     53 H9         100.7420   116.6960   101.4410 ha         1 0IE       0.170000
     54 H10        102.4520   119.1200   102.2740 ha         1 0IE       0.173000
     55 H11        101.7760   117.7470    99.6080 hc         1 0IE       0.058700
     56 H12         90.1130   106.4120   112.2950 h1         1 0IE       0.023700
     57 H13         91.2680   107.1040   111.1590 h1         1 0IE       0.023700
     58 H14         91.6390   110.1860   108.1180 hc         1 0IE       0.043033
     59 H15         92.7720   111.0430   107.1090 hc         1 0IE       0.043033
     60 H16         93.2790   109.5470   107.9080 hc         1 0IE       0.043033
     61 H17         96.6830   116.2820   108.4640 hc         1 0IE       0.043700
     62 H18         98.4110   115.8990   108.4000 hc         1 0IE       0.043700
     63 H19         97.7300   117.2180   107.4320 hc         1 0IE       0.043700
     64 H20        101.4710   117.5750   105.5500 hc         1 0IE       0.042700
     65 H21        102.5490   118.1720   104.3180 hc         1 0IE       0.042700
     66 H22        101.0980   119.1010   104.7320 hc         1 0IE       0.042700
     67 H23        103.6420   117.5220    97.8320 hc         1 0IE       0.048700
     68 H24        105.3310   117.5720    98.3200 hc         1 0IE       0.048700
     69 H25        105.2790   119.9750    98.6540 h1         1 0IE       0.035700
     70 H26        103.0140   121.2540    98.2020 ha         1 0IE       0.185000
     71 H27         88.1360   107.4590   113.2540 hc         1 0IE       0.066200
     72 H28         88.7540   106.8710   114.7740 hc         1 0IE       0.066200
     73 H29         85.1520   108.9880   116.5990 hc         1 0IE       0.045700
     74 H30         86.0150   109.0020   118.1200 hc         1 0IE       0.045700
     75 H31         87.3970   110.9740   117.2750 h1         1 0IE       0.040700
     76 H32         86.8750   112.0050   115.1670 hc         1 0IE       0.059700
     77 H33         85.4400   111.0220   114.9190 hc         1 0IE       0.059700
     78 H34         86.7300   110.9090   112.6560 hc         1 0IE       0.045033
     79 H35         88.3790   111.2720   113.1840 hc         1 0IE       0.045033
     80 H36         87.9830   109.7020   112.4690 hc         1 0IE       0.045033
     81 H37         86.1320   106.5470   117.3290 hc         1 0IE       0.034033
     82 H38         85.8080   106.7550   115.6050 hc         1 0IE       0.034033
     83 H39         87.3260   106.0300   116.1540 hc         1 0IE       0.034033
     84 H40         88.1880   107.9200   118.3850 hc         1 0IE       0.034033
     85 H41         89.2100   107.4770   117.0190 hc         1 0IE       0.034033
     86 H42         88.9590   109.1800   117.4120 hc         1 0IE       0.034033
     87 H43        100.1540   119.9390    99.7980 hc         1 0IE       0.041700
     88 H44        101.0800   120.8300   101.0200 hc         1 0IE       0.041700
     89 H45        100.9340   121.4690    99.3820 hc         1 0IE       0.041700
     90 H46        104.7450   118.1200   102.0100 hc         1 0IE       0.035700
     91 H47        105.9670   118.0890   100.7400 hc         1 0IE       0.035700
     92 H48        104.9320   119.5090   100.9400 hc         1 0IE       0.035700
     93 H49        103.6100   116.0220   101.2900 hc         1 0IE       0.035700
     94 H50        103.1920   115.7270    99.5980 hc         1 0IE       0.035700
     95 H51        104.8880   115.8030   100.0910 hc         1 0IE       0.035700
     96 H52         94.3550   112.7800   110.0940 ha         1 0IE       0.172000
     97 H53         94.6840   112.1330   107.0550 ha         1 0IE       0.175000
     98 H54         89.2490   106.6530   110.1610 ho         1 0IE       0.441000
     99 H55         85.4250   111.3210   118.4220 ho         1 0IE       0.440000
    100 H56        105.3290   119.2260    96.4770 ho         1 0IE       0.439000
@<TRIPOS>BOND
     1     1     7 2   
     2     2     3 1   
     3     2    19 1   
     4     2    40 2   
     5     3     4 2   
     6     3    45 1   
     7     4     5 1   
     8     4    46 1   
     9     5     6 2   
    10     5    47 1   
    11     6     7 1   
    12     6    18 1   
    13     7    27 1   
    14     8     9 1   
    15     8    41 2   
    16     8    48 1   
    17     9    10 2   
    18     9    49 1   
    19    10    11 1   
    20    10    20 1   
    21    11    12 2   
    22    11    50 1   
    23    12    13 1   
    24    12    51 1   
    25    13    14 2   
    26    13    52 1   
    27    14    15 1   
    28    14    21 1   
    29    15    16 2   
    30    15    53 1   
    31    16    17 1   
    32    16    54 1   
    33    17    22 1   
    34    17    26 1   
    35    17    55 1   
    36    18    42 1   
    37    18    56 1   
    38    18    57 1   
    39    19    58 1   
    40    19    59 1   
    41    19    60 1   
    42    20    61 1   
    43    20    62 1   
    44    20    63 1   
    45    21    64 1   
    46    21    65 1   
    47    21    66 1   
    48    22    23 1   
    49    22    38 1   
    50    22    39 1   
    51    23    24 1   
    52    23    67 1   
    53    23    68 1   
    54    24    25 1   
    55    24    44 1   
    56    24    69 1   
    57    25    26 2   
    58    25    70 1   
    59    26    37 1   
    60    27    28 1   
    61    27    71 1   
    62    27    72 1   
    63    28    29 1   
    64    28    33 2   
    65    29    30 1   
    66    29    35 1   
    67    29    36 1   
    68    30    31 1   
    69    30    73 1   
    70    30    74 1   
    71    31    32 1   
    72    31    43 1   
    73    31    75 1   
    74    32    33 1   
    75    32    76 1   
    76    32    77 1   
    77    33    34 1   
    78    34    78 1   
    79    34    79 1   
    80    34    80 1   
    81    35    81 1   
    82    35    82 1   
    83    35    83 1   
    84    36    84 1   
    85    36    85 1   
    86    36    86 1   
    87    37    87 1   
    88    37    88 1   
    89    37    89 1   
    90    38    90 1   
    91    38    91 1   
    92    38    92 1   
    93    39    93 1   
    94    39    94 1   
    95    39    95 1   
    96    40    41 1   
    97    40    96 1   
    98    41    97 1   
    99    42    98 1   
   100    43    99 1   
   101    44   100 1   
@<TRIPOS>SUBSTRUCTURE
     1 0IE         1 TEMP              0 ****  ****    0 ROOT
