@<TRIPOS>MOLECULE
0IE
  100   101     1     0     0
SMALL
abcg2


@<TRIPOS>ATOM
      1 O1          89.4370   110.5440   113.9780 o          1 0IE      -0.530100
      2 C7          92.8620   111.5720   108.7150 ce         1 0IE      -0.081200
      3 C6          92.1410   111.3590   109.9430 ce         1 0IE      -0.132000
      4 C5          91.2650   110.3660   110.2280 cf         1 0IE      -0.207000
      5 C4          90.6300   110.3000   111.5120 cf         1 0IE      -0.084000
      6 C3          89.7840   109.3490   111.9720 ce         1 0IE      -0.220400
      7 C2          89.2260   109.5310   113.3390 c          1 0IE       0.581300
      8 C10         95.4430   114.0100   107.6240 ce         1 0IE      -0.155000
      9 C11         96.2750   114.3810   106.5220 ce         1 0IE      -0.186000
     10 C12         97.1900   115.3880   106.4820 cf         1 0IE      -0.052200
     11 C13         97.9300   115.5770   105.2570 cf         1 0IE      -0.182000
     12 C14         98.8850   116.5110   105.0470 ce         1 0IE      -0.163000
     13 C15         99.5820   116.6320   103.7960 ce         1 0IE      -0.186000
     14 C16        100.5640   117.5130   103.4850 cf         1 0IE      -0.055200
     15 C17        101.1350   117.4570   102.1480 cf         1 0IE      -0.194000
     16 C18        102.1280   118.2260   101.6860 c2         1 0IE      -0.190200
     17 C19        102.6940   118.1210   100.3010 c6         1 0IE       0.011700
     18 C20         89.3820   108.1500   111.1650 c3         1 0IE       0.208800
     19 C21         92.6520   110.6820   107.5210 c3         1 0IE      -0.052900
     20 C22         97.4720   116.3040   107.6350 c3         1 0IE      -0.057900
     21 C23        101.0980   118.5410   104.4350 c3         1 0IE      -0.056900
     22 C24        104.0910   117.4440   100.2930 c6         1 0IE      -0.029000
     23 C25        104.6980   117.6220    98.8990 c6         1 0IE      -0.106400
     24 C26        104.9120   119.0820    98.5330 c6         1 0IE       0.209500
     25 C27        103.6790   119.8780    98.8190 c2         1 0IE      -0.215200
     26 C28        102.6870   119.4730    99.6110 c2         1 0IE      -0.101400
     27 C30         88.4210   108.3850   113.9260 c3         1 0IE      -0.130200
     28 C31         87.6580   108.7280   115.1800 c2         1 0IE      -0.108400
     29 C32         88.1410   108.0920   116.4760 c6         1 0IE       0.006200
     30 C33         87.1760   108.4010   117.6290 c6         1 0IE      -0.105400
     31 C34         86.6900   109.8370   117.6150 c6         1 0IE       0.171300
     32 C35         85.8930   110.0580   116.3490 c6         1 0IE      -0.039200
     33 C36         86.6250   109.5780   115.1250 c2         1 0IE      -0.086400
     34 C37         86.1100   110.1820   113.8510 c3         1 0IE      -0.060900
     35 C38         88.2020   106.5640   116.3350 c3         1 0IE      -0.081600
     36 C39         89.5480   108.6000   116.8200 c3         1 0IE      -0.081600
     37 C41        101.4640   120.3160    99.8160 c3         1 0IE      -0.052900
     38 C43        105.0140   118.0440   101.3570 c3         1 0IE      -0.085600
     39 C44        103.9320   115.9500   100.5680 c3         1 0IE      -0.085600
     40 C8          93.7450   112.6070   108.6840 cf         1 0IE      -0.160000
     41 C9          94.5680   112.9750   107.5750 cf         1 0IE      -0.186000
     42 O29         88.0530   108.3300   110.7100 oh         1 0IE      -0.657000
     43 O40         85.8590   110.1390   118.7190 oh         1 0IE      -0.662000
     44 O42        105.2120   119.2480    97.1570 oh         1 0IE      -0.656000
     45 H1          92.3420   112.0840   110.7280 ha         1 0IE       0.172000
     46 H2          91.0370   109.6100   109.4870 ha         1 0IE       0.181000
     47 H3          90.8660   111.1170   112.1870 ha         1 0IE       0.193000
     48 H4          95.5090   114.5750   108.5490 ha         1 0IE       0.172000
     49 H5          96.1580   113.7820   105.6230 ha         1 0IE       0.171000
     50 H6          97.6900   114.8980   104.4430 ha         1 0IE       0.171000
     51 H7          99.1390   117.1950   105.8480 ha         1 0IE       0.174000
     52 H8          99.2810   115.9300   103.0220 ha         1 0IE       0.170000
     53 H9         100.7040   116.7160   101.4780 ha         1 0IE       0.170000
     54 H10        102.5740   118.9750   102.3330 ha         1 0IE       0.173000
     55 H11        102.0190   117.4740    99.7220 hc         1 0IE       0.058700
     56 H12         89.4730   107.2460   111.7780 h1         1 0IE       0.023700
     57 H13         90.0720   108.0110   110.3270 h1         1 0IE       0.023700
     58 H14         91.8870   109.9290   107.6890 hc         1 0IE       0.043033
     59 H15         92.3460   111.2600   106.6480 hc         1 0IE       0.043033
     60 H16         93.5690   110.1560   107.2520 hc         1 0IE       0.043033
     61 H17         96.8570   116.0930   108.5050 hc         1 0IE       0.043700
     62 H18         98.5160   116.2300   107.9440 hc         1 0IE       0.043700
     63 H19         97.2990   117.3450   107.3530 hc         1 0IE       0.043700
     64 H20        100.6170   118.5120   105.4090 hc         1 0IE       0.042700
     65 H21        102.1700   118.4040   104.5920 hc         1 0IE       0.042700
     66 H22        100.9670   119.5470   104.0310 hc         1 0IE       0.042700
     67 H23        104.0290   117.1740    98.1560 hc         1 0IE       0.048700
     68 H24        105.6460   117.0760    98.8440 hc         1 0IE       0.048700
     69 H25        105.7410   119.4860    99.1340 h1         1 0IE       0.035700
     70 H26        103.6130   120.8530    98.3440 ha         1 0IE       0.185000
     71 H27         87.7590   107.9780   113.1600 hc         1 0IE       0.066200
     72 H28         89.1450   107.5830   114.1060 hc         1 0IE       0.066200
     73 H29         86.2990   107.7460   117.5620 hc         1 0IE       0.045700
     74 H30         87.6710   108.1660   118.5780 hc         1 0IE       0.045700
     75 H31         87.5590   110.5110   117.5980 h1         1 0IE       0.040700
     76 H32         85.6590   111.1220   116.2280 hc         1 0IE       0.059700
     77 H33         84.9260   109.5450   116.4300 hc         1 0IE       0.059700
     78 H34         85.0180   110.1640   113.8380 hc         1 0IE       0.045033
     79 H35         86.4010   111.2340   113.7760 hc         1 0IE       0.045033
     80 H36         86.4550   109.6820   112.9480 hc         1 0IE       0.045033
     81 H37         88.4580   106.1140   117.2970 hc         1 0IE       0.034033
     82 H38         87.2390   106.1560   116.0230 hc         1 0IE       0.034033
     83 H39         88.9570   106.2360   115.6190 hc         1 0IE       0.034033
     84 H40         89.9140   108.1090   117.7250 hc         1 0IE       0.034033
     85 H41         90.2620   108.3840   116.0230 hc         1 0IE       0.034033
     86 H42         89.5640   109.6770   116.9910 hc         1 0IE       0.034033
     87 H43        100.5590   119.7480    99.5870 hc         1 0IE       0.041700
     88 H44        101.3650   120.6480   100.8520 hc         1 0IE       0.041700
     89 H45        101.4790   121.2010    99.1810 hc         1 0IE       0.041700
     90 H46        104.6860   117.7750   102.3620 hc         1 0IE       0.035700
     91 H47        106.0300   117.6610   101.2340 hc         1 0IE       0.035700
     92 H48        105.0620   119.1330   101.3080 hc         1 0IE       0.035700
     93 H49        103.4720   115.7680   101.5410 hc         1 0IE       0.035700
     94 H50        103.3090   115.4710    99.8090 hc         1 0IE       0.035700
     95 H51        104.9040   115.4520   100.5640 hc         1 0IE       0.035700
     96 H52         93.8500   113.2120   109.5810 ha         1 0IE       0.172000
     97 H53         94.4950   112.4000   106.6570 ha         1 0IE       0.175000
     98 H54         87.7410   107.4880   110.3630 ho         1 0IE       0.441000
     99 H55         86.3760   110.0230   119.5220 ho         1 0IE       0.440000
    100 H56        106.0650   118.8340    96.9890 ho         1 0IE       0.439000
@<TRIPOS>BOND
     1     1     7 2   
     2     2     3 1   
     3     2    19 1   
     4     2    40 2   
     5     3     4 2   
     6     3    45 1   
     7     4     5 1   
     8     4    46 1   
     9     5     6 2   
    10     5    47 1   
    11     6     7 1   
    12     6    18 1   
    13     7    27 1   
    14     8     9 1   
    15     8    41 2   
    16     8    48 1   
    17     9    10 2   
    18     9    49 1   
    19    10    11 1   
    20    10    20 1   
    21    11    12 2   
    22    11    50 1   
    23    12    13 1   
    24    12    51 1   
    25    13    14 2   
    26    13    52 1   
    27    14    15 1   
    28    14    21 1   
    29    15    16 2   
    30    15    53 1   
    31    16    17 1   
    32    16    54 1   
    33    17    22 1   
    34    17    26 1   
    35    17    55 1   
    36    18    42 1   
    37    18    56 1   
    38    18    57 1   
    39    19    58 1   
    40    19    59 1   
    41    19    60 1   
    42    20    61 1   
    43    20    62 1   
    44    20    63 1   
    45    21    64 1   
    46    21    65 1   
    47    21    66 1   
    48    22    23 1   
    49    22    38 1   
    50    22    39 1   
    51    23    24 1   
    52    23    67 1   
    53    23    68 1   
    54    24    25 1   
    55    24    44 1   
    56    24    69 1   
    57    25    26 2   
    58    25    70 1   
    59    26    37 1   
    60    27    28 1   
    61    27    71 1   
    62    27    72 1   
    63    28    29 1   
    64    28    33 2   
    65    29    30 1   
    66    29    35 1   
    67    29    36 1   
    68    30    31 1   
    69    30    73 1   
    70    30    74 1   
    71    31    32 1   
    72    31    43 1   
    73    31    75 1   
    74    32    33 1   
    75    32    76 1   
    76    32    77 1   
    77    33    34 1   
    78    34    78 1   
    79    34    79 1   
    80    34    80 1   
    81    35    81 1   
    82    35    82 1   
    83    35    83 1   
    84    36    84 1   
    85    36    85 1   
    86    36    86 1   
    87    37    87 1   
    88    37    88 1   
    89    37    89 1   
    90    38    90 1   
    91    38    91 1   
    92    38    92 1   
    93    39    93 1   
    94    39    94 1   
    95    39    95 1   
    96    40    41 1   
    97    40    96 1   
    98    41    97 1   
    99    42    98 1   
   100    43    99 1   
   101    44   100 1   
@<TRIPOS>SUBSTRUCTURE
     1 0IE         1 TEMP              0 ****  ****    0 ROOT
