@<TRIPOS>MOLECULE
0IF
   15    15     1     0     0
SMALL
No Charge or Current Charge


@<TRIPOS>ATOM
      1 C02         57.7070   -19.9230    41.4350 ca         1 0IF       0.394000
      2 C03         58.6080   -18.9570    40.9670 ca         1 0IF      -0.220000
      3 C04         59.0690   -17.9370    41.8150 ca         1 0IF      -0.012000
      4 C05         58.6210   -17.8880    43.1420 ca         1 0IF      -0.215000
      5 C06         57.7210   -18.8540    43.6150 ca         1 0IF       0.257000
      6 C08         57.2560   -19.8780    42.7690 ca         1 0IF      -0.162000
      7 C09         56.3370   -20.8530    43.2810 cg         1 0IF       0.338000
      8 F07         57.3060   -18.7820    44.9020 f          1 0IF      -0.168000
      9 N01         57.2960   -20.8930    40.5580 nv         1 0IF      -1.099000
     10 N10         55.5830   -21.6470    43.6860 n1         1 0IF      -0.462000
     11 H1          58.9590   -18.9920    39.9390 ha         1 0IF       0.120000
     12 H2          59.7690   -17.1890    41.4440 ha         1 0IF       0.119000
     13 H3          58.9710   -17.1030    43.8080 ha         1 0IF       0.140000
     14 H4          56.5120   -21.4960    40.8020 hn         1 0IF       0.485000
     15 H5          57.5070   -20.7930    39.5660 hn         1 0IF       0.485000
@<TRIPOS>BOND
     1     1     2 ar  
     2     1     6 ar  
     3     1     9 1   
     4     2     3 ar  
     5     2    11 1   
     6     3     4 ar  
     7     3    12 1   
     8     4     5 ar  
     9     4    13 1   
    10     5     6 ar  
    11     5     8 1   
    12     6     7 1   
    13     7    10 3   
    14     9    14 1   
    15     9    15 1   
@<TRIPOS>SUBSTRUCTURE
     1 0IF         1 TEMP              0 ****  ****    0 ROOT
