@<TRIPOS>MOLECULE
0IF
   15    15     1     0     0
SMALL
abcg2


@<TRIPOS>ATOM
      1 C02         57.7060   -19.9250    41.4100 ca         1 0IF       0.394000
      2 C03         58.6110   -18.9410    40.9720 ca         1 0IF      -0.220000
      3 C04         59.0540   -17.9530    41.8280 ca         1 0IF      -0.012000
      4 C05         58.6260   -17.8810    43.1590 ca         1 0IF      -0.215000
      5 C06         57.7420   -18.8390    43.5850 ca         1 0IF       0.257000
      6 C08         57.2650   -19.8630    42.7580 ca         1 0IF      -0.162000
      7 C09         56.3580   -20.8220    43.2660 cg         1 0IF       0.338000
      8 F07         57.2920   -18.8130    44.8560 f          1 0IF      -0.168000
      9 N01         57.2990   -20.9220    40.5820 nv         1 0IF      -1.099000
     10 N10         55.6180   -21.6220    43.6510 n1         1 0IF      -0.462000
     11 H1          58.9560   -18.9730    39.9460 ha         1 0IF       0.120000
     12 H2          59.7490   -17.2100    41.4610 ha         1 0IF       0.119000
     13 H3          58.9670   -17.1100    43.8340 ha         1 0IF       0.140000
     14 H4          56.5010   -21.4850    40.8270 hn         1 0IF       0.485000
     15 H5          57.4770   -20.8250    39.5960 hn         1 0IF       0.485000
@<TRIPOS>BOND
     1     1     2 ar  
     2     1     6 ar  
     3     1     9 1   
     4     2     3 ar  
     5     2    11 1   
     6     3     4 ar  
     7     3    12 1   
     8     4     5 ar  
     9     4    13 1   
    10     5     6 ar  
    11     5     8 1   
    12     6     7 1   
    13     7    10 3   
    14     9    14 1   
    15     9    15 1   
@<TRIPOS>SUBSTRUCTURE
     1 0IF         1 TEMP              0 ****  ****    0 ROOT
