@<TRIPOS>MOLECULE
0IG
   47    50     1     0     0
SMALL
abcg2


@<TRIPOS>ATOM
      1 O          168.5180   173.4130   167.4570 o          1 0IG      -0.497100
      2 C          168.8590   174.1920   166.6040 c          1 0IG       0.616100
      3 N          168.9570   174.7490   164.1710 na         1 0IG      -0.148500
      4 C4         166.0390   177.2910   162.8280 c          1 0IG       0.620000
      5 C3         168.1800   176.2930   162.8460 cc         1 0IG       0.445900
      6 C2         169.8920   175.1580   163.2950 cd         1 0IG       0.455400
      7 C1         169.0830   173.7200   165.1730 c3         1 0IG      -0.010400
      8 N1         169.4600   176.0950   162.4750 nc         1 0IG      -0.684000
      9 C10        168.5270   176.7030   170.0810 cc         1 0IG       0.312500
     10 C11        167.9900   176.3710   171.4000 ca         1 0IG       0.014500
     11 C12        167.3810   175.1310   171.6110 ca         1 0IG      -0.096500
     12 C13        166.8640   174.8020   172.8470 ca         1 0IG      -0.032500
     13 C14        166.9570   175.7230   173.8830 ca         1 0IG       0.018400
     14 C15        167.5620   176.9690   173.7040 ca         1 0IG      -0.032500
     15 C16        168.0720   177.2790   172.4660 ca         1 0IG      -0.096500
     16 C17        169.0610   177.9010   169.7130 cd         1 0IG      -0.238000
     17 C7         167.8260   175.4800   163.8850 cd         1 0IG      -0.368600
     18 C8         166.5410   175.5040   164.4930 c          1 0IG       0.630600
     19 C9         169.0070   176.2010   168.0020 cd         1 0IG       0.593300
     20 N2         167.3070   177.1880   162.3050 n          1 0IG      -0.357300
     21 N3         165.7060   176.4430   163.8860 n          1 0IG      -0.372400
     22 N4         169.1380   175.5170   166.8170 ns         1 0IG      -0.478400
     23 N5         168.5030   175.7510   169.0950 nc         1 0IG      -0.658000
     24 N6         166.4160   175.3190   175.1040 ne         1 0IG      -0.005400
     25 N7         166.3130   175.8960   176.1070 n1         1 0IG       0.156000
     26 N8         166.3160   176.2990   177.2080 n2         1 0IG      -0.203400
     27 O1         165.2260   178.0850   162.4000 o          1 0IG      -0.533000
     28 O2         166.1880   174.8090   165.4300 o          1 0IG      -0.536000
     29 S          169.5610   177.8510   168.0790 ss         1 0IG       0.018600
     30 H1         164.2010   175.8830   165.2030 h1         1 0IG       0.061367
     31 H2         164.1950   177.5990   164.7880 h1         1 0IG       0.061367
     32 H3         163.6180   176.3990   163.6180 h1         1 0IG       0.061367
     33 H4         170.8870   174.7380   163.2930 h5         1 0IG       0.071100
     34 H5         168.3780   172.9140   164.9750 h1         1 0IG       0.105200
     35 H6         170.0890   173.3010   165.1040 h1         1 0IG       0.105200
     36 H7         167.3120   174.4210   170.7990 ha         1 0IG       0.167000
     37 H8         166.3930   173.8420   173.0130 ha         1 0IG       0.145000
     38 H9         167.6360   177.6820   174.5150 ha         1 0IG       0.145000
     39 H10        168.5430   178.2440   172.3370 ha         1 0IG       0.167000
     40 H11        169.1840   178.8020   170.2930 h4         1 0IG       0.170000
     41 H12        166.8880   178.5870   160.8240 h1         1 0IG       0.064367
     42 H13        168.4870   178.7580   161.5600 h1         1 0IG       0.064367
     43 H14        168.1700   177.4410   160.4170 h1         1 0IG       0.064367
     44 H15        169.4890   176.0500   166.0350 hn         1 0IG       0.343500
     45 H16        165.4800   176.8390   177.4730 hn         1 0IG       0.490400
     46 C5         164.3490   176.5950   164.4000 c3         1 0IG       0.083300
     47 C6         167.7410   178.0450   161.2140 c3         1 0IG       0.097300
@<TRIPOS>BOND
     1     1     2 2   
     2     2     7 1   
     3     2    22 1   
     4     3     6 1   
     5     3     7 1   
     6     3    17 1   
     7     4    20 1   
     8     4    21 1   
     9     4    27 2   
    10     5     8 1   
    11     5    17 2   
    12     5    20 1   
    13     6     8 2   
    14     6    33 1   
    15     7    34 1   
    16     7    35 1   
    17     9    10 1   
    18     9    16 2   
    19     9    23 1   
    20    10    11 ar  
    21    10    15 ar  
    22    11    12 ar  
    23    11    36 1   
    24    12    13 ar  
    25    12    37 1   
    26    13    14 ar  
    27    13    24 1   
    28    14    15 ar  
    29    14    38 1   
    30    15    39 1   
    31    16    29 1   
    32    16    40 1   
    33    17    18 1   
    34    18    21 1   
    35    18    28 2   
    36    19    22 1   
    37    19    23 2   
    38    19    29 1   
    39    20    47 1   
    40    21    46 1   
    41    22    44 1   
    42    24    25 2   
    43    25    26 2   
    44    26    45 1   
    45    30    46 1   
    46    31    46 1   
    47    32    46 1   
    48    41    47 1   
    49    42    47 1   
    50    43    47 1   
@<TRIPOS>SUBSTRUCTURE
     1 0IG         1 TEMP              0 ****  ****    0 ROOT
