@<TRIPOS>MOLECULE
0IG
   47    50     1     0     0
SMALL
No Charge or Current Charge


@<TRIPOS>ATOM
      1 O          168.3540   173.3620   167.4840 o          1 0IG      -0.497100
      2 C          168.7290   174.1460   166.6250 c          1 0IG       0.616100
      3 N          168.9070   174.7380   164.1410 na         1 0IG      -0.148500
      4 C4         166.0660   177.3280   162.5950 c          1 0IG       0.620000
      5 C3         168.2380   176.3190   162.8010 cc         1 0IG       0.445900
      6 C2         169.9510   175.1350   163.3080 cd         1 0IG       0.455400
      7 C1         168.9680   173.6780   165.1780 c3         1 0IG      -0.010400
      8 N1         169.5460   176.1080   162.4990 nc         1 0IG      -0.684000
      9 C10        168.4630   176.6520   170.1490 cc         1 0IG       0.312500
     10 C11        168.0800   176.3870   171.5480 ca         1 0IG       0.014500
     11 C12        167.3530   175.2190   171.8710 ca         1 0IG      -0.096500
     12 C13        167.0060   174.9280   173.2020 ca         1 0IG      -0.032500
     13 C14        167.3920   175.7930   174.2400 ca         1 0IG       0.018400
     14 C15        168.1410   176.9440   173.9360 ca         1 0IG      -0.032500
     15 C16        168.4870   177.2360   172.6040 ca         1 0IG      -0.096500
     16 C17        168.7680   177.9280   169.7420 cd         1 0IG      -0.238000
     17 C7         167.8050   175.5080   163.7890 cd         1 0IG      -0.368600
     18 C8         166.4220   175.5380   164.2730 c          1 0IG       0.630600
     19 C9         168.8450   176.1900   168.0280 cd         1 0IG       0.593300
     20 N2         167.4100   177.2340   162.1960 n          1 0IG      -0.357300
     21 N3         165.6170   176.4890   163.6320 n          1 0IG      -0.372400
     22 N4         168.9730   175.4830   166.8620 ns         1 0IG      -0.478400
     23 N5         168.4930   175.6710   169.1930 nc         1 0IG      -0.658000
     24 N6         167.0510   175.5000   175.5730 ne         1 0IG      -0.005400
     25 N7         165.9760   175.9450   176.0320 n1         1 0IG       0.156000
     26 N8         166.0680   176.0870   177.2590 n2         1 0IG      -0.203400
     27 O1         165.3070   178.1180   162.0500 o          1 0IG      -0.533000
     28 O2         166.0180   174.7980   165.1560 o          1 0IG      -0.536000
     29 S          169.1580   177.9290   168.0330 ss         1 0IG       0.018600
     30 H1         164.0430   176.2180   165.0700 h1         1 0IG       0.061367
     31 H2         163.8720   177.6510   164.0460 h1         1 0IG       0.061367
     32 H3         163.5590   176.0310   163.3620 h1         1 0IG       0.061367
     33 H4         170.9380   174.6910   163.3560 h5         1 0IG       0.071100
     34 H5         168.2140   172.9160   164.9490 h1         1 0IG       0.105200
     35 H6         169.9560   173.2030   165.1510 h1         1 0IG       0.105200
     36 H7         167.0460   174.5320   171.0840 ha         1 0IG       0.167000
     37 H8         166.4390   174.0270   173.4270 ha         1 0IG       0.145000
     38 H9         168.4600   177.6110   174.7350 ha         1 0IG       0.145000
     39 H10        169.0850   178.1220   172.4070 ha         1 0IG       0.167000
     40 H11        168.7750   178.8480   170.3110 h4         1 0IG       0.170000
     41 H12        167.4780   177.7800   160.1470 h1         1 0IG       0.064367
     42 H13        167.5680   179.1520   161.2880 h1         1 0IG       0.064367
     43 H14        168.9860   178.1130   161.0390 h1         1 0IG       0.064367
     44 H15        169.2570   176.0000   166.0420 hn         1 0IG       0.343500
     45 H16        165.1390   176.2660   177.6580 hn         1 0IG       0.490400
     46 C5         164.1930   176.6010   164.0530 c3         1 0IG       0.083300
     47 C6         167.8910   178.1190   161.1050 c3         1 0IG       0.097300
@<TRIPOS>BOND
     1     1     2 2   
     2     2     7 1   
     3     2    22 1   
     4     3     6 1   
     5     3     7 1   
     6     3    17 1   
     7     4    20 1   
     8     4    21 1   
     9     4    27 2   
    10     5     8 1   
    11     5    17 2   
    12     5    20 1   
    13     6     8 2   
    14     6    33 1   
    15     7    34 1   
    16     7    35 1   
    17     9    10 1   
    18     9    16 2   
    19     9    23 1   
    20    10    11 ar  
    21    10    15 ar  
    22    11    12 ar  
    23    11    36 1   
    24    12    13 ar  
    25    12    37 1   
    26    13    14 ar  
    27    13    24 1   
    28    14    15 ar  
    29    14    38 1   
    30    15    39 1   
    31    16    29 1   
    32    16    40 1   
    33    17    18 1   
    34    18    21 1   
    35    18    28 2   
    36    19    22 1   
    37    19    23 2   
    38    19    29 1   
    39    20    47 1   
    40    21    46 1   
    41    22    44 1   
    42    24    25 2   
    43    25    26 2   
    44    26    45 1   
    45    30    46 1   
    46    31    46 1   
    47    32    46 1   
    48    41    47 1   
    49    42    47 1   
    50    43    47 1   
@<TRIPOS>SUBSTRUCTURE
     1 0IG         1 TEMP              0 ****  ****    0 ROOT
