@<TRIPOS>MOLECULE
0IH
   60    65     1     0     0
SMALL
No Charge or Current Charge


@<TRIPOS>ATOM
      1 C4           9.8040   -24.7980     0.9630 ca         1 0IH      -0.055300
      2 C14          7.0420   -23.0180    -1.6290 cc         1 0IH      -0.126000
      3 C5          11.0280   -24.4020     0.3880 ca         1 0IH      -0.112000
      4 C6          11.3010   -24.6850    -0.9620 ca         1 0IH      -0.107000
      5 C11          6.9870   -20.8120     1.4020 cd         1 0IH       0.612500
      6 C7          10.3540   -25.3690    -1.7410 ca         1 0IH       0.103000
      7 C8           9.1350   -25.7730    -1.1730 ca         1 0IH      -0.107000
      8 C9           8.8600   -25.4860     0.1750 ca         1 0IH      -0.112000
      9 C10          9.1800   -21.9360     2.0970 c3         1 0IH       0.102000
     10 C12          6.7120   -21.6740     0.2590 cd         1 0IH      -0.247900
     11 C13          7.6350   -22.2800    -0.5730 cc         1 0IH      -0.090000
     12 N1           8.2470   -20.7660     2.0260 n          1 0IH      -0.295300
     13 N2           5.9270   -20.0650     1.7290 nc         1 0IH      -0.685100
     14 C3           9.4890   -24.4730     2.4180 c3         1 0IH      -0.025100
     15 N3           9.7820   -13.8290     3.4350 na         1 0IH      -0.220700
     16 C1           8.0080   -23.1400     4.0050 c          1 0IH       0.717000
     17 O2           6.8110   -23.2760     4.1990 o          1 0IH      -0.717500
     18 C2           8.5250   -23.2660     2.5600 c3         1 0IH      -0.210700
     19 Cl1         10.6920   -25.7170    -3.4310 cl         1 0IH      -0.244000
     20 C15          5.6760   -22.9760    -1.6310 cd         1 0IH      -0.045000
     21 Cl2          4.6490   -23.7620    -2.7870 cl         1 0IH      -0.171000
     22 S1           5.0520   -21.9530    -0.3260 ss         1 0IH       0.294000
     23 C16          6.1980   -19.0040     2.5900 ca         1 0IH       0.224400
     24 C17          5.1300   -18.1500     2.9190 ca         1 0IH      -0.118000
     25 C18          5.3240   -17.0220     3.7320 ca         1 0IH      -0.061000
     26 C19          6.6050   -16.7100     4.2350 cp         1 0IH      -0.101000
     27 C20          6.8150   -15.5190     5.1110 cp         1 0IH       0.048000
     28 C21          6.0410   -15.4170     6.2920 ca         1 0IH      -0.108000
     29 C22          6.2130   -14.3560     7.1900 ca         1 0IH      -0.092000
     30 C23          7.1680   -13.3690     6.9180 ca         1 0IH      -0.124000
     31 C24          7.9420   -13.4420     5.7500 ca         1 0IH      -0.094000
     32 C25          7.7900   -14.5110     4.8310 ca         1 0IH      -0.144500
     33 C26          8.5800   -14.4610     3.5890 cc         1 0IH       0.465000
     34 N4          10.2240   -13.9430     2.1580 nc         1 0IH      -0.201800
     35 N5           9.2910   -14.6240     1.5520 nd         1 0IH      -0.050000
     36 N6           8.2620   -14.9480     2.4050 nd         1 0IH      -0.373000
     37 C27          7.6700   -17.5850     3.9200 ca         1 0IH       0.000000
     38 C28          7.4660   -18.7160     3.1000 ca         1 0IH      -0.181600
     39 C29          8.5680   -19.6600     2.8220 c          1 0IH       0.587600
     40 O3           9.6870   -19.4770     3.2880 o          1 0IH      -0.501000
     41 H2          11.7650   -23.8680     0.9840 ha         1 0IH       0.123000
     42 H3          12.2440   -24.3730    -1.4040 ha         1 0IH       0.120000
     43 H5           8.4030   -26.3020    -1.7780 ha         1 0IH       0.120000
     44 H6           7.9090   -25.7930     0.6060 ha         1 0IH       0.123000
     45 H7           9.7110   -22.0550     1.1520 h1         1 0IH       0.055200
     46 H8           9.9830   -21.7350     2.8160 h1         1 0IH       0.055200
     47 H9           8.7100   -22.1940    -0.5260 ha         1 0IH       0.162000
     48 H11          9.0310   -25.3510     2.8920 hc         1 0IH       0.065700
     49 H12         10.4110   -24.2770     2.9800 hc         1 0IH       0.065700
     50 H13         10.3080   -13.3460     4.1510 hn         1 0IH       0.385000
     51 H15          7.6600   -23.4810     1.9240 hc         1 0IH       0.040700
     52 H16          4.1380   -18.3600     2.5280 ha         1 0IH       0.124000
     53 H17          4.4790   -16.3770     3.9630 ha         1 0IH       0.104000
     54 H18          5.3050   -16.1860     6.5170 ha         1 0IH       0.126000
     55 H19          5.6100   -14.3000     8.0940 ha         1 0IH       0.112000
     56 H20          7.3020   -12.5390     7.6080 ha         1 0IH       0.111000
     57 H21          8.6520   -12.6410     5.5550 ha         1 0IH       0.109000
     58 H22          8.6570   -17.3780     4.3290 ha         1 0IH       0.133000
     59 O1           8.8140   -22.9120     4.8950 o          1 0IH      -0.717500
     60 H1           7.6320   -23.5490    -2.3690 ha         1 0IH       0.148000
@<TRIPOS>BOND
     1     1     3 ar  
     2     1     8 ar  
     3     1    14 1   
     4     2    11 1   
     5     2    20 2   
     6     2    60 1   
     7     3     4 ar  
     8     3    41 1   
     9     4     6 ar  
    10     4    42 1   
    11     5    10 1   
    12     5    12 1   
    13     5    13 2   
    14     6     7 ar  
    15     6    19 1   
    16     7     8 ar  
    17     7    43 1   
    18     8    44 1   
    19     9    12 1   
    20     9    18 1   
    21     9    45 1   
    22     9    46 1   
    23    10    11 2   
    24    10    22 1   
    25    11    47 1   
    26    12    39 1   
    27    13    23 1   
    28    14    18 1   
    29    14    48 1   
    30    14    49 1   
    31    15    33 1   
    32    15    34 1   
    33    15    50 1   
    34    16    17 1   
    35    16    18 1   
    36    16    59 1   
    37    18    51 1   
    38    20    21 1   
    39    20    22 1   
    40    23    24 ar  
    41    23    38 ar  
    42    24    25 ar  
    43    24    52 1   
    44    25    26 ar  
    45    25    53 1   
    46    26    27 1   
    47    26    37 ar  
    48    27    28 ar  
    49    27    32 ar  
    50    28    29 ar  
    51    28    54 1   
    52    29    30 ar  
    53    29    55 1   
    54    30    31 ar  
    55    30    56 1   
    56    31    32 ar  
    57    31    57 1   
    58    32    33 1   
    59    33    36 2   
    60    34    35 2   
    61    35    36 1   
    62    37    38 ar  
    63    37    58 1   
    64    38    39 1   
    65    39    40 2   
@<TRIPOS>SUBSTRUCTURE
     1 0IH         1 TEMP              0 ****  ****    0 ROOT
