@<TRIPOS>MOLECULE
0IH
   60    65     1     0     0
SMALL
abcg2


@<TRIPOS>ATOM
      1 C4          10.0820   -24.5460     1.0090 ca         1 0IH      -0.055300
      2 C14          6.6990   -23.4300    -1.4810 cc         1 0IH      -0.126000
      3 C5          10.6930   -24.1370    -0.1770 ca         1 0IH      -0.112000
      4 C6          10.4290   -24.7750    -1.3840 ca         1 0IH      -0.107000
      5 C11          7.0150   -20.6470     1.0680 cd         1 0IH       0.612500
      6 C7           9.5450   -25.8430    -1.4000 ca         1 0IH       0.103000
      7 C8           8.9360   -26.2900    -0.2360 ca         1 0IH      -0.107000
      8 C9           9.2120   -25.6380     0.9590 ca         1 0IH      -0.112000
      9 C10          9.2750   -21.5990     1.6200 c3         1 0IH       0.102000
     10 C12          6.8010   -21.6020    -0.0280 cd         1 0IH      -0.247900
     11 C13          7.1830   -22.9000    -0.2600 cc         1 0IH      -0.090000
     12 N1           8.2030   -20.6040     1.7760 n          1 0IH      -0.295300
     13 N2           6.0420   -19.7990     1.2510 nc         1 0IH      -0.685100
     14 C3          10.2890   -23.8020     2.3010 c3         1 0IH      -0.025100
     15 N3          10.0140   -14.8020     4.2600 na         1 0IH      -0.220700
     16 C1           9.1830   -22.3160     4.0720 c          1 0IH       0.717000
     17 O2           8.0660   -22.0060     4.5600 o          1 0IH      -0.717500
     18 C2           9.1670   -22.7850     2.5930 c3         1 0IH      -0.210700
     19 CL1          9.1820   -26.6400    -2.9200 cl         1 0IH      -0.244000
     20 C15          5.9540   -22.5150    -2.1670 cd         1 0IH      -0.045000
     21 CL2          5.2030   -22.7430    -3.6980 cl         1 0IH      -0.171000
     22 S1           5.8020   -21.0150    -1.3340 ss         1 0IH       0.294000
     23 C16          6.1780   -18.8060     2.1860 ca         1 0IH       0.224400
     24 C17          5.1090   -17.9240     2.4250 ca         1 0IH      -0.118000
     25 C18          5.2420   -16.9140     3.3520 ca         1 0IH      -0.061000
     26 C19          6.4410   -16.7300     4.0700 cp         1 0IH      -0.101000
     27 C20          6.5600   -15.6380     5.0620 cp         1 0IH       0.048000
     28 C21          5.5710   -15.4850     6.0370 ca         1 0IH      -0.108000
     29 C22          5.6760   -14.5180     7.0280 ca         1 0IH      -0.092000
     30 C23          6.7830   -13.6760     7.0650 ca         1 0IH      -0.124000
     31 C24          7.7680   -13.7980     6.0960 ca         1 0IH      -0.094000
     32 C25          7.6610   -14.7610     5.0900 ca         1 0IH      -0.144500
     33 C26          8.6880   -14.7840     4.0430 cc         1 0IH       0.465000
     34 N4          10.6580   -14.7790     3.0860 nc         1 0IH      -0.201800
     35 N5           9.7430   -14.7400     2.1780 nd         1 0IH      -0.050000
     36 N6           8.5090   -14.7410     2.7310 nd         1 0IH      -0.373000
     37 C27          7.4920   -17.6050     3.8410 ca         1 0IH       0.000000
     38 C28          7.3680   -18.6370     2.9100 ca         1 0IH      -0.181600
     39 C29          8.4730   -19.5530     2.6700 c          1 0IH       0.587600
     40 O3           9.5780   -19.4350     3.1830 o          1 0IH      -0.501000
     41 H2          11.3800   -23.3000    -0.1650 ha         1 0IH       0.123000
     42 H3          10.9000   -24.4420    -2.2990 ha         1 0IH       0.120000
     43 H5           8.2530   -27.1290    -0.2620 ha         1 0IH       0.120000
     44 H6           8.7300   -25.9770     1.8680 ha         1 0IH       0.123000
     45 H7           9.2700   -21.9380     0.5890 h1         1 0IH       0.055200
     46 H8          10.2110   -21.0750     1.7940 h1         1 0IH       0.055200
     47 H9           7.7640   -23.4930     0.4230 ha         1 0IH       0.162000
     48 H11         10.3180   -24.5120     3.1280 hc         1 0IH       0.065700
     49 H12         11.2480   -23.2830     2.2920 hc         1 0IH       0.065700
     50 H13         10.5230   -14.8590     5.1310 hn         1 0IH       0.385000
     51 H15          8.2010   -23.2710     2.4420 hc         1 0IH       0.040700
     52 H16          4.1920   -18.0520     1.8650 ha         1 0IH       0.124000
     53 H17          4.4180   -16.2330     3.5200 ha         1 0IH       0.104000
     54 H18          4.7230   -16.1570     6.0320 ha         1 0IH       0.126000
     55 H19          4.8990   -14.4290     7.7760 ha         1 0IH       0.112000
     56 H20          6.8740   -12.9230     7.8360 ha         1 0IH       0.111000
     57 H21          8.6150   -13.1240     6.0980 ha         1 0IH       0.109000
     58 H22          8.4200   -17.5110     4.3870 ha         1 0IH       0.133000
     59 O1          10.2890   -22.2870     4.6620 o          1 0IH      -0.717500
     60 H1           6.8930   -24.4330    -1.8310 ha         1 0IH       0.148000
@<TRIPOS>BOND
     1     1     3 ar  
     2     1     8 ar  
     3     1    14 1   
     4     2    11 1   
     5     2    20 2   
     6     2    60 1   
     7     3     4 ar  
     8     3    41 1   
     9     4     6 ar  
    10     4    42 1   
    11     5    10 1   
    12     5    12 1   
    13     5    13 2   
    14     6     7 ar  
    15     6    19 1   
    16     7     8 ar  
    17     7    43 1   
    18     8    44 1   
    19     9    12 1   
    20     9    18 1   
    21     9    45 1   
    22     9    46 1   
    23    10    11 2   
    24    10    22 1   
    25    11    47 1   
    26    12    39 1   
    27    13    23 1   
    28    14    18 1   
    29    14    48 1   
    30    14    49 1   
    31    15    33 1   
    32    15    34 1   
    33    15    50 1   
    34    16    17 1   
    35    16    18 1   
    36    16    59 1   
    37    18    51 1   
    38    20    21 1   
    39    20    22 1   
    40    23    24 ar  
    41    23    38 ar  
    42    24    25 ar  
    43    24    52 1   
    44    25    26 ar  
    45    25    53 1   
    46    26    27 1   
    47    26    37 ar  
    48    27    28 ar  
    49    27    32 ar  
    50    28    29 ar  
    51    28    54 1   
    52    29    30 ar  
    53    29    55 1   
    54    30    31 ar  
    55    30    56 1   
    56    31    32 ar  
    57    31    57 1   
    58    32    33 1   
    59    33    36 2   
    60    34    35 2   
    61    35    36 1   
    62    37    38 ar  
    63    37    58 1   
    64    38    39 1   
    65    39    40 2   
@<TRIPOS>SUBSTRUCTURE
     1 0IH         1 TEMP              0 ****  ****    0 ROOT
