@<TRIPOS>MOLECULE
0IM
   24    25     1     0     0
SMALL
abcg2


@<TRIPOS>ATOM
      1 C03        -45.8310     3.0640     1.5580 ca         1 0IM      -0.112500
      2 C04        -46.2460     3.8550     2.6190 ca         1 0IM      -0.095500
      3 C05        -45.3000     4.5560     3.3530 ca         1 0IM       0.044800
      4 C08        -46.5620     6.3850     4.5620 cc         1 0IM      -0.269300
      5 C10        -45.8050     5.7950     6.5270 cd         1 0IM       0.251900
      6 C01        -43.5430     3.6580     1.9970 ca         1 0IM      -0.112500
      7 C02        -44.4810     2.9630     1.2460 ca         1 0IM      -0.123000
      8 C06        -43.9490     4.4610     3.0530 ca         1 0IM      -0.095500
      9 C09        -46.6650     6.7110     5.9000 cd         1 0IM      -0.149600
     10 C12        -47.5090     7.7470     6.6070 c          1 0IM       0.737600
     11 C15        -47.1610     7.0820     3.3850 c3         1 0IM       0.400300
     12 F16        -46.5800     6.7220     2.2320 f          1 0IM      -0.114000
     13 F17        -47.0140     8.4020     3.4770 f          1 0IM      -0.114000
     14 F18        -48.4660     6.8250     3.2520 f          1 0IM      -0.114000
     15 N07        -45.7010     5.3360     4.4710 na         1 0IM       0.200000
     16 N11        -45.2420     4.9760     5.6670 nc         1 0IM      -0.544800
     17 O13        -47.2080     7.9440     7.7990 o          1 0IM      -0.706000
     18 O14        -48.4230     8.2740     5.9500 o          1 0IM      -0.706000
     19 H1         -46.5650     2.5160     0.9810 ha         1 0IM       0.106000
     20 H2         -47.2950     3.9160     2.8790 ha         1 0IM       0.132000
     21 H3         -45.5940     5.7080     7.5820 h4         1 0IM       0.045100
     22 H4         -42.4900     3.5800     1.7600 ha         1 0IM       0.106000
     23 H5         -44.1610     2.3400     0.4220 ha         1 0IM       0.101000
     24 H6         -43.2240     5.0110     3.6380 ha         1 0IM       0.132000
@<TRIPOS>BOND
     1     1     2 ar  
     2     1     7 ar  
     3     1    19 1   
     4     2     3 ar  
     5     2    20 1   
     6     3     8 ar  
     7     3    15 1   
     8     4     9 2   
     9     4    11 1   
    10     4    15 1   
    11     5     9 1   
    12     5    16 2   
    13     5    21 1   
    14     6     7 ar  
    15     6     8 ar  
    16     6    22 1   
    17     7    23 1   
    18     8    24 1   
    19     9    10 1   
    20    10    17 1   
    21    10    18 1   
    22    11    12 1   
    23    11    13 1   
    24    11    14 1   
    25    15    16 1   
@<TRIPOS>SUBSTRUCTURE
     1 0IM         1 TEMP              0 ****  ****    0 ROOT
