@<TRIPOS>MOLECULE
0IM
   24    25     1     0     0
SMALL
No Charge or Current Charge


@<TRIPOS>ATOM
      1 C03        -45.7660     2.7890     1.7440 ca         1 0IM      -0.112500
      2 C04        -46.2040     3.5000     2.8750 ca         1 0IM      -0.095500
      3 C05        -45.3720     4.4720     3.4670 ca         1 0IM       0.044800
      4 C08        -46.5110     6.3910     4.5420 cc         1 0IM      -0.269300
      5 C10        -46.0880     5.5900     6.6070 cd         1 0IM       0.251900
      6 C01        -43.6600     4.0100     1.7900 ca         1 0IM      -0.112500
      7 C02        -44.4950     3.0440     1.2020 ca         1 0IM      -0.123000
      8 C06        -44.0970     4.7230     2.9210 ca         1 0IM      -0.095500
      9 C09        -46.6910     6.6510     5.8930 cd         1 0IM      -0.149600
     10 C12        -47.3790     7.8100     6.5330 c          1 0IM       0.737600
     11 C15        -46.9380     7.1710     3.3050 c3         1 0IM       0.400300
     12 F16        -46.5740     6.5890     2.1410 f          1 0IM      -0.114000
     13 F17        -46.3970     8.4110     3.2950 f          1 0IM      -0.114000
     14 F18        -48.2820     7.3140     3.2540 f          1 0IM      -0.114000
     15 N07        -45.8090     5.1830     4.5850 na         1 0IM       0.200000
     16 N11        -45.5400     4.6750     5.8310 nc         1 0IM      -0.544800
     17 O13        -47.4210     7.8400     7.7550 o          1 0IM      -0.706000
     18 O14        -47.8740     8.6870     5.8420 o          1 0IM      -0.706000
     19 H1         -46.4110     2.0400     1.2900 ha         1 0IM       0.106000
     20 H2         -47.1880     3.3020     3.2930 ha         1 0IM       0.132000
     21 H3         -46.0370     5.4610     7.6810 h4         1 0IM       0.045100
     22 H4         -42.6760     4.2080     1.3700 ha         1 0IM       0.106000
     23 H5         -44.1560     2.4930     0.3270 ha         1 0IM       0.101000
     24 H6         -43.4510     5.4710     3.3740 ha         1 0IM       0.132000
@<TRIPOS>BOND
     1     1     2 ar  
     2     1     7 ar  
     3     1    19 1   
     4     2     3 ar  
     5     2    20 1   
     6     3     8 ar  
     7     3    15 1   
     8     4     9 2   
     9     4    11 1   
    10     4    15 1   
    11     5     9 1   
    12     5    16 2   
    13     5    21 1   
    14     6     7 ar  
    15     6     8 ar  
    16     6    22 1   
    17     7    23 1   
    18     8    24 1   
    19     9    10 1   
    20    10    17 1   
    21    10    18 1   
    22    11    12 1   
    23    11    13 1   
    24    11    14 1   
    25    15    16 1   
@<TRIPOS>SUBSTRUCTURE
     1 0IM         1 TEMP              0 ****  ****    0 ROOT
