@<TRIPOS>MOLECULE
0IN
   30    32     1     0     0
SMALL
No Charge or Current Charge


@<TRIPOS>ATOM
      1 CAE         -0.1020    -0.5850     0.9770 ca         1 0IN      -0.134300
      2 CAF         -1.4920    -0.4480     1.5970 c3         1 0IN       0.036200
      3 CAG          0.7500     0.5300     0.8100 ca         1 0IN       0.179100
      4 CAH          2.0340     0.3920     0.2250 ca         1 0IN       0.191000
      5 CAI          0.3380    -1.8530     0.5520 ca         1 0IN      -0.058000
      6 CAJ         -2.5430    -0.1300     0.5420 ca         1 0IN      -0.126300
      7 NAK          2.8320     1.4870     0.0780 nb         1 0IN      -0.689000
      8 NAL         -4.0570    -0.9440    -1.1800 nb         1 0IN      -0.668000
      9 CAM          2.4510    -0.8970    -0.1930 ca         1 0IN      -0.039000
     10 CAN          1.6060    -2.0090    -0.0290 ca         1 0IN      -0.136000
     11 OAO          0.3580     1.7790     1.2080 oh         1 0IN      -0.525100
     12 CAP         -3.1210    -1.1620    -0.2250 ca         1 0IN       0.338900
     13 CAQ          4.0550     1.3270    -0.4850 ca         1 0IN       0.354900
     14 CAR         -2.9530     1.1940     0.3040 ca         1 0IN      -0.059000
     15 CAS         -4.4460     0.3330    -1.4000 ca         1 0IN       0.330900
     16 CAT          3.7220    -1.0530    -0.7760 ca         1 0IN      -0.062000
     17 CAU         -3.9220     1.4240    -0.6860 ca         1 0IN      -0.165000
     18 CAV          4.5340     0.0820    -0.9220 ca         1 0IN      -0.158000
     19 HAF         -1.7620    -1.3750     2.1180 hc         1 0IN       0.057200
     20 HAFA        -1.4930     0.3220     2.3790 hc         1 0IN       0.057200
     21 HAI         -0.3040    -2.7240     0.6700 ha         1 0IN       0.115000
     22 HAN          1.9300    -2.9960    -0.3520 ha         1 0IN       0.120000
     23 HOAO         1.1210     2.3610     0.9820 ho         1 0IN       0.496000
     24 HAP         -2.8270    -2.2000    -0.0710 h4         1 0IN       0.014100
     25 HAQ          4.6650     2.2230    -0.5860 h4         1 0IN       0.021100
     26 HAR         -2.5310     2.0230     0.8690 ha         1 0IN       0.122000
     27 HAS         -5.1990     0.4850    -2.1730 h4         1 0IN       0.016100
     28 HAT          4.0710    -2.0290    -1.1070 ha         1 0IN       0.122000
     29 HAU         -4.2670     2.4310    -0.9020 ha         1 0IN       0.122000
     30 HAV          5.5220     0.0060    -1.3660 ha         1 0IN       0.126000
@<TRIPOS>BOND
     1     1     2 1   
     2     1     3 ar  
     3     1     5 ar  
     4     2     6 1   
     5     2    19 1   
     6     2    20 1   
     7     3     4 ar  
     8     3    11 1   
     9     4     7 ar  
    10     4     9 ar  
    11     5    10 ar  
    12     5    21 1   
    13     6    12 ar  
    14     6    14 ar  
    15     7    13 ar  
    16     8    12 ar  
    17     8    15 ar  
    18     9    10 ar  
    19     9    16 ar  
    20    10    22 1   
    21    11    23 1   
    22    12    24 1   
    23    13    18 ar  
    24    13    25 1   
    25    14    17 ar  
    26    14    26 1   
    27    15    17 ar  
    28    15    27 1   
    29    16    18 ar  
    30    16    28 1   
    31    17    29 1   
    32    18    30 1   
@<TRIPOS>SUBSTRUCTURE
     1 0IN         1 TEMP              0 ****  ****    0 ROOT
