@<TRIPOS>MOLECULE
0IN
   30    32     1     0     0
SMALL
abcg2


@<TRIPOS>ATOM
      1 CAE         -0.1030    -0.6670     1.0170 ca         1 0IN      -0.134300
      2 CAF         -1.4910    -0.5160     1.5840 c3         1 0IN       0.036200
      3 CAG          0.6500     0.4390     0.6920 ca         1 0IN       0.179100
      4 CAH          1.9450     0.2850     0.1270 ca         1 0IN       0.191000
      5 CAI          0.4420    -1.9480     0.7790 ca         1 0IN      -0.058000
      6 CAJ         -2.4820    -0.0860     0.5330 ca         1 0IN      -0.126300
      7 NAK          2.6180     1.4200    -0.1630 nb         1 0IN      -0.689000
      8 NAL         -3.7210    -0.6610    -1.4440 nb         1 0IN      -0.668000
      9 CAM          2.4650    -1.0060    -0.1050 ca         1 0IN      -0.039000
     10 CAN          1.6850    -2.1310     0.2350 ca         1 0IN      -0.136000
     11 OAO          0.1780     1.6730     0.9020 oh         1 0IN      -0.525100
     12 CAP         -2.8690    -0.9660    -0.4760 ca         1 0IN       0.338900
     13 CAQ          3.8100     1.3170    -0.6870 ca         1 0IN       0.354900
     14 CAR         -3.0380     1.1850     0.5090 ca         1 0IN      -0.059000
     15 CAS         -4.2400     0.5620    -1.4520 ca         1 0IN       0.330900
     16 CAT          3.7560    -1.0760    -0.6720 ca         1 0IN      -0.062000
     17 CAU         -3.9340     1.5180    -0.4970 ca         1 0IN      -0.165000
     18 CAV          4.4270     0.0790    -0.9650 ca         1 0IN      -0.158000
     19 HAF         -1.8030    -1.4720     2.0080 hc         1 0IN       0.057200
     20 HAFA        -1.4960     0.2050     2.4050 hc         1 0IN       0.057200
     21 HAI         -0.1540    -2.8130     1.0440 ha         1 0IN       0.115000
     22 HAN          2.0740    -3.1260     0.0660 ha         1 0IN       0.120000
     23 HOAO         0.8640     2.2990     0.6150 ho         1 0IN       0.496000
     24 HAP         -2.4650    -1.9740    -0.4940 h4         1 0IN       0.014100
     25 HAQ          4.3300     2.2410    -0.9110 h4         1 0IN       0.021100
     26 HAR         -2.7770     1.9090     1.2710 ha         1 0IN       0.122000
     27 HAS         -4.9330     0.7910    -2.2550 h4         1 0IN       0.016100
     28 HAT          4.2020    -2.0430    -0.8710 ha         1 0IN       0.122000
     29 HAU         -4.3850     2.5000    -0.5410 ha         1 0IN       0.122000
     30 HAV          5.4160     0.0600    -1.4010 ha         1 0IN       0.126000
@<TRIPOS>BOND
     1     1     2 1   
     2     1     3 ar  
     3     1     5 ar  
     4     2     6 1   
     5     2    19 1   
     6     2    20 1   
     7     3     4 ar  
     8     3    11 1   
     9     4     7 ar  
    10     4     9 ar  
    11     5    10 ar  
    12     5    21 1   
    13     6    12 ar  
    14     6    14 ar  
    15     7    13 ar  
    16     8    12 ar  
    17     8    15 ar  
    18     9    10 ar  
    19     9    16 ar  
    20    10    22 1   
    21    11    23 1   
    22    12    24 1   
    23    13    18 ar  
    24    13    25 1   
    25    14    17 ar  
    26    14    26 1   
    27    15    17 ar  
    28    15    27 1   
    29    16    18 ar  
    30    16    28 1   
    31    17    29 1   
    32    18    30 1   
@<TRIPOS>SUBSTRUCTURE
     1 0IN         1 TEMP              0 ****  ****    0 ROOT
