@<TRIPOS>MOLECULE
0IP
   61    64     1     0     0
SMALL
No Charge or Current Charge


@<TRIPOS>ATOM
      1 CAA        -13.1890   -23.9780    16.1820 c6         1 0IP      -0.182400
      2 CAB        -11.6960   -23.8440    15.9000 c          1 0IP       0.579100
      3 CAC        -11.2340   -22.5160    15.2170 c6         1 0IP      -0.087800
      4 CAD        -12.1230   -22.1170    13.9850 c2         1 0IP      -0.103400
      5 CAE        -13.3770   -23.0000    13.7320 c6         1 0IP      -0.003800
      6 CAF        -14.0830   -23.3070    15.1100 c6         1 0IP      -0.067400
      7 CAG        -11.8460   -21.0350    13.1850 ce         1 0IP       0.010900
      8 CAH        -12.6430   -20.6220    11.9500 c          1 0IP       0.569300
      9 CAI        -13.8130   -21.5190    11.4460 c6         1 0IP      -0.093000
     10 CAJ        -14.4490   -22.1440    12.7820 c6         1 0IP       0.202000
     11 CAK        -12.9230   -24.3580    13.0770 c3         1 0IP      -0.090100
     12 CAM        -11.3160   -21.4000    16.3090 c3         1 0IP      -0.079600
     13 CAN         -9.7290   -22.7010    14.7950 c3         1 0IP      -0.079600
     14 CAP        -14.9410   -20.6540    10.6900 c6         1 0IP      -0.153700
     15 CAQ        -16.3470   -21.3440    10.4290 c6         1 0IP      -0.091800
     16 CAR        -16.8080   -22.0360    11.7280 c2         1 0IP      -0.112400
     17 CAS        -15.7590   -22.9390    12.3850 c6         1 0IP      -0.074200
     18 CAT        -14.5500   -19.7880     9.4410 c          1 0IP       0.680100
     19 CAV        -16.7880   -18.8220     9.7480 c6         1 0IP       0.089300
     20 CAW        -17.3670   -20.2660     9.8840 c          1 0IP       0.548100
     21 CAZ        -18.0140   -21.8670    12.3020 c2         1 0IP      -0.297000
     22 CBB        -13.1620   -22.5890    10.4890 c3         1 0IP      -0.092100
     23 CBC        -17.7040   -17.8780     8.9230 c3         1 0IP      -0.083100
     24 CBD        -16.2780   -22.4310     9.3000 c3         1 0IP      -0.085100
     25 OAL        -10.9420   -24.7830    16.1360 o          1 0IP      -0.523100
     26 OAO        -14.9660   -21.0030    13.5360 oh         1 0IP      -0.670000
     27 OAU        -15.4970   -18.8510     9.0840 os         1 0IP      -0.441100
     28 OAX        -10.7910   -20.1890    13.4130 oh         1 0IP      -0.531100
     29 OAY        -12.2330   -19.6760    11.2830 o          1 0IP      -0.517100
     30 OBA        -18.4810   -20.5650     9.4620 o          1 0IP      -0.486100
     31 OBE        -13.5640   -19.9760     8.7470 o          1 0IP      -0.476000
     32 H1         -13.3760   -23.4470    17.1240 hc         1 0IP       0.070700
     33 H2         -13.4410   -25.0350    16.3410 hc         1 0IP       0.070700
     34 H3         -14.4660   -22.3750    15.5480 hc         1 0IP       0.048700
     35 H4         -14.9620   -23.9460    14.9640 hc         1 0IP       0.048700
     36 H5         -12.5220   -25.0730    13.8010 hc         1 0IP       0.043700
     37 H6         -13.7520   -24.8780    12.5880 hc         1 0IP       0.043700
     38 H7         -12.1250   -24.2200    12.3440 hc         1 0IP       0.043700
     39 H8         -10.7890   -21.7000    17.2240 hc         1 0IP       0.047200
     40 H9         -10.8660   -20.4580    15.9790 hc         1 0IP       0.047200
     41 H10        -12.3550   -21.1830    16.5850 hc         1 0IP       0.047200
     42 H11         -9.1160   -23.0510    15.6350 hc         1 0IP       0.047200
     43 H12         -9.6350   -23.4370    13.9880 hc         1 0IP       0.047200
     44 H13         -9.2530   -21.7780    14.4550 hc         1 0IP       0.047200
     45 H14        -15.2020   -19.8650    11.4030 hc         1 0IP       0.095700
     46 H16        -16.2010   -23.3980    13.2760 hc         1 0IP       0.062700
     47 H17        -15.5310   -23.7840    11.7280 hc         1 0IP       0.062700
     48 H18        -16.6740   -18.4090    10.7610 h1         1 0IP       0.070700
     49 H19        -18.2820   -22.3790    13.2270 ha         1 0IP       0.176000
     50 H20        -18.7940   -21.2310    11.8880 ha         1 0IP       0.176000
     51 H22        -12.1050   -22.7550    10.7250 hc         1 0IP       0.057700
     52 H23        -13.6560   -23.5630    10.5310 hc         1 0IP       0.057700
     53 H24        -13.1790   -22.2890     9.4380 hc         1 0IP       0.057700
     54 H25        -18.6900   -17.7720     9.3910 hc         1 0IP       0.058700
     55 H26        -17.2660   -16.8750     8.8470 hc         1 0IP       0.058700
     56 H27        -17.8540   -18.2560     7.9040 hc         1 0IP       0.058700
     57 H28        -15.6040   -23.2580     9.5290 hc         1 0IP       0.052700
     58 H29        -17.2620   -22.8860     9.1290 hc         1 0IP       0.052700
     59 H30        -15.9500   -22.0030     8.3450 hc         1 0IP       0.052700
     60 H31        -15.9310   -20.9950    13.3560 ho         1 0IP       0.455000
     61 H32        -10.8230   -19.5230    12.6850 ho         1 0IP       0.485000
@<TRIPOS>BOND
     1     1     2 1   
     2     1     6 1   
     3     1    32 1   
     4     1    33 1   
     5     2     3 1   
     6     2    25 2   
     7     3     4 1   
     8     3    12 1   
     9     3    13 1   
    10     4     5 1   
    11     4     7 2   
    12     5     6 1   
    13     5    10 1   
    14     5    11 1   
    15     6    34 1   
    16     6    35 1   
    17     7     8 1   
    18     7    28 1   
    19     8     9 1   
    20     8    29 2   
    21     9    10 1   
    22     9    14 1   
    23     9    22 1   
    24    10    17 1   
    25    10    26 1   
    26    11    36 1   
    27    11    37 1   
    28    11    38 1   
    29    12    39 1   
    30    12    40 1   
    31    12    41 1   
    32    13    42 1   
    33    13    43 1   
    34    13    44 1   
    35    14    15 1   
    36    14    18 1   
    37    14    45 1   
    38    15    16 1   
    39    15    20 1   
    40    15    24 1   
    41    16    17 1   
    42    16    21 2   
    43    17    46 1   
    44    17    47 1   
    45    18    27 1   
    46    18    31 2   
    47    19    20 1   
    48    19    23 1   
    49    19    27 1   
    50    19    48 1   
    51    20    30 2   
    52    21    49 1   
    53    21    50 1   
    54    22    51 1   
    55    22    52 1   
    56    22    53 1   
    57    23    54 1   
    58    23    55 1   
    59    23    56 1   
    60    24    57 1   
    61    24    58 1   
    62    24    59 1   
    63    26    60 1   
    64    28    61 1   
@<TRIPOS>SUBSTRUCTURE
     1 0IP         1 TEMP              0 ****  ****    0 ROOT
