@<TRIPOS>MOLECULE
0IP
   61    64     1     0     0
SMALL
abcg2


@<TRIPOS>ATOM
      1 CAA        -13.2720   -23.8670    16.0330 c6         1 0IP      -0.182400
      2 CAB        -11.7930   -23.7960    15.7510 c          1 0IP       0.579100
      3 CAC        -11.2650   -22.5700    15.0050 c6         1 0IP      -0.087800
      4 CAD        -12.2170   -22.0890    13.9100 c2         1 0IP      -0.103400
      5 CAE        -13.5120   -22.8590    13.7160 c6         1 0IP      -0.003800
      6 CAF        -14.1150   -22.9700    15.1370 c6         1 0IP      -0.067400
      7 CAG        -11.9600   -20.9700    13.2140 ce         1 0IP       0.010900
      8 CAH        -12.8530   -20.4500    12.1540 c          1 0IP       0.569300
      9 CAI        -13.8520   -21.4210    11.5620 c6         1 0IP      -0.093000
     10 CAJ        -14.5180   -22.0760    12.8070 c6         1 0IP       0.202000
     11 CAK        -13.2580   -24.2890    13.1980 c3         1 0IP      -0.090100
     12 CAM        -11.1550   -21.5140    16.1350 c3         1 0IP      -0.079600
     13 CAN         -9.8810   -22.8850    14.4280 c3         1 0IP      -0.079600
     14 CAP        -14.9400   -20.6270    10.8040 c6         1 0IP      -0.153700
     15 CAQ        -16.2400   -21.4040    10.4260 c6         1 0IP      -0.091800
     16 CAR        -16.7440   -22.1180    11.6730 c2         1 0IP      -0.112400
     17 CAS        -15.6930   -22.9490    12.3560 c6         1 0IP      -0.074200
     18 CAT        -14.4930   -19.8530     9.5850 c          1 0IP       0.680100
     19 CAV        -16.7210   -18.9600     9.7250 c6         1 0IP       0.089300
     20 CAW        -17.2440   -20.3800     9.8900 c          1 0IP       0.548100
     21 CAZ        -17.9710   -22.0500    12.1780 c2         1 0IP      -0.297000
     22 CBB        -13.0480   -22.3870    10.6730 c3         1 0IP      -0.092100
     23 CBC        -17.6020   -18.0780     8.8750 c3         1 0IP      -0.083100
     24 CBD        -16.0550   -22.4310     9.2890 c3         1 0IP      -0.085100
     25 OAL        -11.0400   -24.6430    16.1760 o          1 0IP      -0.523100
     26 OAO        -15.0060   -20.9580    13.5270 oh         1 0IP      -0.670000
     27 OAU        -15.4390   -19.0440     9.0910 os         1 0IP      -0.441100
     28 OAX        -10.8820   -20.1880    13.4410 oh         1 0IP      -0.531100
     29 OAY        -12.7080   -19.3050    11.7800 o          1 0IP      -0.517100
     30 OBA        -18.3620   -20.6770     9.5610 o          1 0IP      -0.486100
     31 OBE        -13.4410   -19.8980     9.0110 o          1 0IP      -0.476000
     32 H1         -13.4220   -23.5940    17.0820 hc         1 0IP       0.070700
     33 H2         -13.5720   -24.9140    15.9520 hc         1 0IP       0.070700
     34 H3         -14.1900   -21.9780    15.5820 hc         1 0IP       0.048700
     35 H4         -15.1280   -23.3750    15.0930 hc         1 0IP       0.048700
     36 H5         -12.3870   -24.7560    13.6570 hc         1 0IP       0.043700
     37 H6         -14.1100   -24.9340    13.4200 hc         1 0IP       0.043700
     38 H7         -13.0820   -24.3360    12.1300 hc         1 0IP       0.043700
     39 H8         -10.5160   -21.8870    16.9370 hc         1 0IP       0.047200
     40 H9         -10.7180   -20.5900    15.7650 hc         1 0IP       0.047200
     41 H10        -12.1300   -21.2770    16.5610 hc         1 0IP       0.047200
     42 H11         -9.1920   -23.1840    15.2160 hc         1 0IP       0.047200
     43 H12         -9.9390   -23.6990    13.7030 hc         1 0IP       0.047200
     44 H13         -9.4580   -22.0180    13.9290 hc         1 0IP       0.047200
     45 H14        -15.2690   -19.8610    11.5150 hc         1 0IP       0.095700
     46 H16        -16.1390   -23.4560    13.2150 hc         1 0IP       0.062700
     47 H17        -15.3410   -23.7430    11.6950 hc         1 0IP       0.062700
     48 H18        -16.6130   -18.5130    10.7210 h1         1 0IP       0.070700
     49 H19        -18.2110   -22.6040    13.0780 ha         1 0IP       0.176000
     50 H20        -18.7780   -21.4760    11.7490 ha         1 0IP       0.176000
     51 H22        -12.1420   -22.7230    11.1710 hc         1 0IP       0.057700
     52 H23        -13.6150   -23.2720    10.3980 hc         1 0IP       0.057700
     53 H24        -12.7480   -21.8930     9.7560 hc         1 0IP       0.057700
     54 H25        -18.5660   -17.9380     9.3600 hc         1 0IP       0.058700
     55 H26        -17.1450   -17.0960     8.7610 hc         1 0IP       0.058700
     56 H27        -17.7700   -18.5040     7.8870 hc         1 0IP       0.058700
     57 H28        -15.4380   -23.2740     9.5860 hc         1 0IP       0.052700
     58 H29        -17.0270   -22.8300     9.0040 hc         1 0IP       0.052700
     59 H30        -15.6010   -21.9890     8.4010 hc         1 0IP       0.052700
     60 H31        -15.7730   -21.2100    14.0530 ho         1 0IP       0.455000
     61 H32        -10.9730   -19.3890    12.8990 ho         1 0IP       0.485000
@<TRIPOS>BOND
     1     1     2 1   
     2     1     6 1   
     3     1    32 1   
     4     1    33 1   
     5     2     3 1   
     6     2    25 2   
     7     3     4 1   
     8     3    12 1   
     9     3    13 1   
    10     4     5 1   
    11     4     7 2   
    12     5     6 1   
    13     5    10 1   
    14     5    11 1   
    15     6    34 1   
    16     6    35 1   
    17     7     8 1   
    18     7    28 1   
    19     8     9 1   
    20     8    29 2   
    21     9    10 1   
    22     9    14 1   
    23     9    22 1   
    24    10    17 1   
    25    10    26 1   
    26    11    36 1   
    27    11    37 1   
    28    11    38 1   
    29    12    39 1   
    30    12    40 1   
    31    12    41 1   
    32    13    42 1   
    33    13    43 1   
    34    13    44 1   
    35    14    15 1   
    36    14    18 1   
    37    14    45 1   
    38    15    16 1   
    39    15    20 1   
    40    15    24 1   
    41    16    17 1   
    42    16    21 2   
    43    17    46 1   
    44    17    47 1   
    45    18    27 1   
    46    18    31 2   
    47    19    20 1   
    48    19    23 1   
    49    19    27 1   
    50    19    48 1   
    51    20    30 2   
    52    21    49 1   
    53    21    50 1   
    54    22    51 1   
    55    22    52 1   
    56    22    53 1   
    57    23    54 1   
    58    23    55 1   
    59    23    56 1   
    60    24    57 1   
    61    24    58 1   
    62    24    59 1   
    63    26    60 1   
    64    28    61 1   
@<TRIPOS>SUBSTRUCTURE
     1 0IP         1 TEMP              0 ****  ****    0 ROOT
