@<TRIPOS>MOLECULE
0IT
   63    64     1     0     0
SMALL
bcc


@<TRIPOS>ATOM
      1 C3           3.0400    -1.4390    -0.1100 c3         1 0IT      -0.156300
      2 S            4.0980    -0.0450    -0.5350 s6         1 0IT       1.230900
      3 C11          3.8770    -2.6710     0.0280 ca         1 0IT      -0.084300
      4 C6           4.0970    -3.4990    -1.0690 ca         1 0IT      -0.105000
      5 C5           4.8830    -4.6350    -0.9460 ca         1 0IT      -0.127500
      6 C4           5.4650    -4.9500     0.2760 ca         1 0IT      -0.116000
      7 C31          5.2530    -4.1250     1.3730 ca         1 0IT      -0.127500
      8 C21          4.4660    -2.9900     1.2490 ca         1 0IT      -0.105000
      9 O2S          4.7140    -0.3440    -1.8190 o          1 0IT      -0.595300
     10 O1S          4.9450     0.2320     0.6170 o          1 0IT      -0.595300
     11 N            3.1610     1.2760    -0.7720 n7         1 0IT      -0.846100
     12 CA           2.6670     2.1170     0.2960 c6         1 0IT       0.173500
     13 CB           2.9250     3.5850    -0.0110 c6         1 0IT      -0.077400
     14 CG           2.3210     4.4250     1.0980 c6         1 0IT      -0.092400
     15 CD           0.8220     4.2190     1.1550 c6         1 0IT       0.102000
     16 C            1.1970     1.8190     0.6030 c          1 0IT       0.689500
     17 O            0.7430     0.7000     0.4200 o          1 0IT      -0.669500
     18 N1           0.4540     2.8070     1.1410 n          1 0IT      -0.442800
     19 CA1         -0.9330     2.5080     1.3800 c3         1 0IT       0.014000
     20 C1          -1.7260     2.4080     0.0830 c          1 0IT       0.657100
     21 O1          -1.2660     2.7380    -0.9940 o          1 0IT      -0.575100
     22 N2          -2.9740     1.9270     0.2370 ns         1 0IT      -0.573900
     23 CA2         -3.9200     1.8960    -0.8420 c3         1 0IT      -0.008300
     24 C2          -4.4340     3.2750    -1.1950 c          1 0IT       0.554900
     25 O2          -4.1650     4.2790    -0.5920 o          1 0IT      -0.475100
     26 CB1         -5.1090     0.9900    -0.5160 c3         1 0IT      -0.079400
     27 CG1         -4.7070    -0.4670    -0.3280 c3         1 0IT      -0.093400
     28 CD1         -5.9260    -1.3300    -0.0510 c3         1 0IT       0.030300
     29 NE          -5.5210    -2.7110     0.1470 nu         1 0IT      -0.409100
     30 CZ          -6.3570    -3.7060     0.4100 cz         1 0IT       0.532300
     31 NH1         -7.6600    -3.4800     0.4950 nv         1 0IT      -0.510200
     32 NH2         -5.8880    -4.9350     0.5810 nv         1 0IT      -0.510200
     33 H11          2.2990    -1.5250    -0.9050 h1         1 0IT       0.098700
     34 H2A          2.5250    -1.1750     0.8120 h1         1 0IT       0.098700
     35 H6           3.6440    -3.2590    -2.0230 ha         1 0IT       0.135500
     36 H5           5.0440    -5.2750    -1.8040 ha         1 0IT       0.135500
     37 H4           6.0780    -5.8370     0.3730 ha         1 0IT       0.135000
     38 H3           5.7020    -4.3670     2.3280 ha         1 0IT       0.135500
     39 H21          4.3010    -2.3530     2.1090 ha         1 0IT       0.135500
     40 H            2.6200     1.2540    -1.6290 hn         1 0IT       0.446800
     41 HA           3.2180     1.8620     1.2060 h1         1 0IT       0.099700
     42 HB2          4.0000     3.7480    -0.0960 hc         1 0IT       0.070700
     43 HB3          2.4770     3.8490    -0.9740 hc         1 0IT       0.070700
     44 HG2          2.7740     4.1560     2.0560 hc         1 0IT       0.064200
     45 HG3          2.5190     5.4850     0.9370 hc         1 0IT       0.064200
     46 HD1          0.4210     4.6620     2.0670 h1         1 0IT       0.054200
     47 HD2          0.3430     4.7230     0.3100 h1         1 0IT       0.054200
     48 HA2         -1.0360     1.5870     1.9550 h1         1 0IT       0.075200
     49 HA3         -1.3620     3.3060     1.9900 h1         1 0IT       0.075200
     50 HXT         -5.1010     3.2890    -2.0760 h4         1 0IT      -0.001800
     51 H2          -3.3190     1.7650     1.1710 hn         1 0IT       0.312500
     52 HA1         -3.4350     1.5090    -1.7460 h1         1 0IT       0.098700
     53 HB21        -5.6100     1.3630     0.3830 hc         1 0IT       0.057700
     54 HB31        -5.8320     1.0680    -1.3320 hc         1 0IT       0.057700
     55 HG21        -4.2030    -0.8280    -1.2290 hc         1 0IT       0.069700
     56 HG31        -4.0000    -0.5640     0.5000 hc         1 0IT       0.069700
     57 HD21        -6.4440    -0.9630     0.8390 h1         1 0IT       0.065200
     58 HD31        -6.6200    -1.2630    -0.8930 h1         1 0IT       0.065200
     59 HE          -4.5350    -2.9230     0.1200 hn         1 0IT       0.326700
     60 HH11        -8.0540    -2.5660     0.3540 hn         1 0IT       0.330200
     61 HH12        -8.3060    -4.2280     0.6830 hn         1 0IT       0.330200
     62 HH21        -6.4960    -5.6960     0.8320 hn         1 0IT       0.330200
     63 HH22        -4.9000    -5.1230     0.5630 hn         1 0IT       0.330200
@<TRIPOS>BOND
     1     1     2 1   
     2     1     3 1   
     3     1    33 1   
     4     1    34 1   
     5     2     9 2   
     6     2    10 2   
     7     2    11 1   
     8     3     4 ar  
     9     3     8 ar  
    10     4     5 ar  
    11     4    35 1   
    12     5     6 ar  
    13     5    36 1   
    14     6     7 ar  
    15     6    37 1   
    16     7     8 ar  
    17     7    38 1   
    18     8    39 1   
    19    11    12 1   
    20    11    40 1   
    21    12    13 1   
    22    12    16 1   
    23    12    41 1   
    24    13    14 1   
    25    13    42 1   
    26    13    43 1   
    27    14    15 1   
    28    14    44 1   
    29    14    45 1   
    30    15    18 1   
    31    15    46 1   
    32    15    47 1   
    33    16    17 2   
    34    16    18 1   
    35    18    19 1   
    36    19    20 1   
    37    19    48 1   
    38    19    49 1   
    39    20    21 2   
    40    20    22 1   
    41    22    23 1   
    42    22    51 1   
    43    23    24 1   
    44    23    26 1   
    45    23    52 1   
    46    24    25 2   
    47    24    50 1   
    48    26    27 1   
    49    26    53 1   
    50    26    54 1   
    51    27    28 1   
    52    27    55 1   
    53    27    56 1   
    54    28    29 1   
    55    28    57 1   
    56    28    58 1   
    57    29    30 2   
    58    29    59 1   
    59    30    31 1   
    60    30    32 1   
    61    31    60 1   
    62    31    61 1   
    63    32    62 1   
    64    32    63 1   
@<TRIPOS>SUBSTRUCTURE
     1 0IT         1 TEMP              0 ****  ****    0 ROOT
