@<TRIPOS>MOLECULE
0IT
   63    64     1     0     0
SMALL
No Charge or Current Charge


@<TRIPOS>ATOM
      1 C3           3.0560    -1.8880     0.6230 c3         1 0IT      -0.267100
      2 S            3.2040    -1.0450    -0.9670 s6         1 0IT       1.200100
      3 C11          4.1120    -2.9620     0.8580 ca         1 0IT      -0.084300
      4 C6           3.8660    -4.2950     0.4760 ca         1 0IT      -0.087000
      5 C5           4.8390    -5.2850     0.6940 ca         1 0IT      -0.109500
      6 C4           6.0640    -4.9480     1.2960 ca         1 0IT      -0.098000
      7 C31          6.3130    -3.6190     1.6790 ca         1 0IT      -0.109500
      8 C21          5.3400    -2.6290     1.4620 ca         1 0IT      -0.087000
      9 O2S          2.9220    -1.9770    -2.0600 o          1 0IT      -0.524500
     10 O1S          4.4250    -0.2360    -0.9850 o          1 0IT      -0.524500
     11 N            1.9220     0.0240    -0.9460 n7         1 0IT      -0.901300
     12 CA           1.9450     1.1970    -0.0110 c6         1 0IT       0.173500
     13 CB           2.5580     2.4390    -0.7020 c6         1 0IT      -0.077400
     14 CG           2.3520     3.6960     0.1620 c6         1 0IT      -0.092400
     15 CD           0.8510     3.9890     0.3480 c6         1 0IT       0.102000
     16 C            0.5290     1.4700     0.6170 c          1 0IT       0.547000
     17 O           -0.1580     0.5230     0.9900 o          1 0IT      -0.594000
     18 N1           0.0610     2.8020     0.7590 n          1 0IT      -0.375800
     19 CA1         -1.3050     3.0490     1.3090 c3         1 0IT       0.014000
     20 C1          -2.4610     2.8840     0.3000 c          1 0IT       0.590100
     21 O1          -2.2920     2.6500    -0.8900 o          1 0IT      -0.575100
     22 N2          -3.7210     3.0430     0.8430 ns         1 0IT      -0.506900
     23 CA2         -4.9990     2.9250     0.0940 c3         1 0IT      -0.008300
     24 C2          -6.0100     4.0100     0.5480 c          1 0IT       0.554900
     25 O2          -5.8460     4.7420     1.5210 o          1 0IT      -0.475100
     26 CB1         -5.6140     1.5050     0.2080 c3         1 0IT      -0.079400
     27 CG1         -4.7320     0.3730    -0.3700 c3         1 0IT      -0.093400
     28 CD1         -5.4170    -1.0040    -0.3120 c3         1 0IT       0.059600
     29 NE          -4.5310    -2.0340    -0.8840 nu         1 0IT      -0.894000
     30 CZ          -4.7490    -3.3240    -1.0320 cz         1 0IT       0.937600
     31 NH1         -5.8640    -3.8580    -0.6280 nv         1 0IT      -0.610800
     32 NH2         -3.8340    -4.0610    -1.5860 nv         1 0IT      -0.610800
     33 H11          2.0540    -2.3290     0.6490 h1         1 0IT       0.098700
     34 H2A          3.1260    -1.1170     1.3960 h1         1 0IT       0.098700
     35 H6           2.9210    -4.5650     0.0100 ha         1 0IT       0.117500
     36 H5           4.6450    -6.3140     0.3970 ha         1 0IT       0.117500
     37 H4           6.8180    -5.7150     1.4640 ha         1 0IT       0.117000
     38 H3           7.2610    -3.3570     2.1450 ha         1 0IT       0.117500
     39 H21          5.5410    -1.6030     1.7610 ha         1 0IT       0.117500
     40 H            1.1840    -0.6050    -0.6250 hn         1 0IT       0.502000
     41 HA           2.5640     0.9720     0.8720 h1         1 0IT       0.099700
     42 HB2          3.6290     2.2860    -0.8860 hc         1 0IT       0.070700
     43 HB3          2.0880     2.5860    -1.6840 hc         1 0IT       0.070700
     44 HG2          2.8280     3.5590     1.1430 hc         1 0IT       0.064200
     45 HG3          2.8420     4.5620    -0.3050 hc         1 0IT       0.064200
     46 HD1          0.7310     4.7900     1.0920 h1         1 0IT       0.054200
     47 HD2          0.4400     4.3620    -0.6010 h1         1 0IT       0.054200
     48 HA2         -1.4940     2.3670     2.1470 h1         1 0IT       0.075200
     49 HA3         -1.3640     4.0700     1.7060 h1         1 0IT       0.075200
     50 HXT         -6.9250     4.0950    -0.0790 h4         1 0IT      -0.001800
     51 H2          -3.7660     3.2660     1.8320 hn         1 0IT       0.312500
     52 HA1         -4.8090     3.1310    -0.9680 h1         1 0IT       0.098700
     53 HB21        -5.8300     1.2900     1.2630 hc         1 0IT       0.057700
     54 HB31        -6.5780     1.4980    -0.3170 hc         1 0IT       0.057700
     55 HG21        -4.4810     0.6080    -1.4120 hc         1 0IT       0.069700
     56 HG31        -3.7890     0.3230     0.1870 hc         1 0IT       0.069700
     57 HD21        -5.6540    -1.2430     0.7360 h1         1 0IT       0.065200
     58 HD31        -6.3620    -0.9590    -0.8730 h1         1 0IT       0.065200
     59 HE          -3.6280    -1.7060    -1.2080 hn         1 0IT       0.377000
     60 HH11        -6.5740    -3.2940    -0.1940 hn         1 0IT       0.380500
     61 HH12        -6.0550    -4.8410    -0.7230 hn         1 0IT       0.380500
     62 HH21        -3.9600    -5.0500    -1.7250 hn         1 0IT       0.380500
     63 HH22        -2.9730    -3.6660    -1.9220 hn         1 0IT       0.380500
@<TRIPOS>BOND
     1     1     2 1   
     2     1     3 1   
     3     1    33 1   
     4     1    34 1   
     5     2     9 2   
     6     2    10 2   
     7     2    11 1   
     8     3     4 ar  
     9     3     8 ar  
    10     4     5 ar  
    11     4    35 1   
    12     5     6 ar  
    13     5    36 1   
    14     6     7 ar  
    15     6    37 1   
    16     7     8 ar  
    17     7    38 1   
    18     8    39 1   
    19    11    12 1   
    20    11    40 1   
    21    12    13 1   
    22    12    16 1   
    23    12    41 1   
    24    13    14 1   
    25    13    42 1   
    26    13    43 1   
    27    14    15 1   
    28    14    44 1   
    29    14    45 1   
    30    15    18 1   
    31    15    46 1   
    32    15    47 1   
    33    16    17 2   
    34    16    18 1   
    35    18    19 1   
    36    19    20 1   
    37    19    48 1   
    38    19    49 1   
    39    20    21 2   
    40    20    22 1   
    41    22    23 1   
    42    22    51 1   
    43    23    24 1   
    44    23    26 1   
    45    23    52 1   
    46    24    25 2   
    47    24    50 1   
    48    26    27 1   
    49    26    53 1   
    50    26    54 1   
    51    27    28 1   
    52    27    55 1   
    53    27    56 1   
    54    28    29 1   
    55    28    57 1   
    56    28    58 1   
    57    29    30 2   
    58    29    59 1   
    59    30    31 1   
    60    30    32 1   
    61    31    60 1   
    62    31    61 1   
    63    32    62 1   
    64    32    63 1   
@<TRIPOS>SUBSTRUCTURE
     1 0IT         1 TEMP              0 ****  ****    0 ROOT
