@<TRIPOS>MOLECULE
0IU
   98   100     1     0     0
SMALL
No Charge or Current Charge


@<TRIPOS>ATOM
      1 C1          -4.2100     3.5830     3.5000 c3         1 0IU       0.083800
      2 C2          -3.0370     1.6930     4.7260 c3         1 0IU       0.083800
      3 C           -3.5910     1.4860     2.2660 c          1 0IU       0.575100
      4 O           -4.0700     1.9560     1.2410 o          1 0IU      -0.594100
      5 N           -3.6100     2.2290     3.4690 n          1 0IU      -0.406800
      6 N1          -2.9260    -0.6510     0.9740 n          1 0IU      -0.392800
      7 C3          -1.9280    -0.4090    -0.0100 c          1 0IU       0.620100
      8 O1          -1.9280    -1.0160    -1.0720 o          1 0IU      -0.600100
      9 CA          -2.9430     0.0770     2.2850 c3         1 0IU       0.017000
     10 CB          -3.9490    -1.7120     0.7790 c3         1 0IU       0.172000
     11 CG2         -5.0620    -1.2660    -0.1950 c3         1 0IU      -0.089100
     12 CG          -3.3500    -3.1040     0.5280 ca         1 0IU      -0.109300
     13 CD1         -2.6590    -3.7400     1.5810 ca         1 0IU      -0.099500
     14 CD2         -3.4640    -3.7730    -0.7130 ca         1 0IU      -0.099500
     15 CE1         -2.1010    -5.0180     1.4040 ca         1 0IU      -0.115500
     16 CE2         -2.9000    -5.0490    -0.8890 ca         1 0IU      -0.115500
     17 CZ          -2.2200    -5.6720     0.1690 ca         1 0IU      -0.107000
     18 C4           1.5790     1.2270    -0.2270 c          1 0IU       0.595100
     19 O2           1.8060     2.1560     0.5330 o          1 0IU      -0.598100
     20 CA1          0.1920     0.9780    -0.8440 c3         1 0IU      -0.132700
     21 CN          -0.8270     0.6370     0.2930 c3         1 0IU      -0.145400
     22 CB1         -0.2610     2.1680    -1.7350 c3         1 0IU      -0.093700
     23 CG1         -1.5180     1.8960    -2.5170 cc         1 0IU       0.312300
     24 CD21        -2.7940     2.1840    -2.0920 cd         1 0IU      -0.253000
     25 SE2         -3.9800     1.6750    -3.2820 ss         1 0IU      -0.103400
     26 CE11        -2.6110     1.1490    -4.2450 cd         1 0IU       0.693300
     27 ND1         -1.4140     1.3160    -3.7570 nc         1 0IU      -0.721000
     28 NZ          -2.6940     0.5880    -5.4560 nv         1 0IU      -1.038900
     29 C11          5.0420     0.5590    -0.5120 c3         1 0IU       0.124300
     30 C21          3.7610     0.0440     0.2230 c3         1 0IU       0.082700
     31 C31          3.8500    -1.4620     0.5990 c3         1 0IU      -0.085400
     32 C7           2.5580    -2.1090     1.2060 c6         1 0IU      -0.057700
     33 C8           2.7700    -3.6240     1.4800 c6         1 0IU      -0.073900
     34 C9           1.4820    -4.2850     2.0310 c6         1 0IU      -0.072400
     35 C10          0.9840    -3.5660     3.3080 c6         1 0IU      -0.075400
     36 C5           0.7770    -2.0550     3.0510 c6         1 0IU      -0.072400
     37 C6           2.0690    -1.3970     2.5020 c6         1 0IU      -0.073900
     38 N2           2.5290     0.2820    -0.5490 ns         1 0IU      -0.514900
     39 O11          5.0150     0.1040    -1.8800 oh         1 0IU      -0.653000
     40 C12          5.1990     2.1180    -0.4550 c3         1 0IU       0.136300
     41 C22          6.4160     2.6530    -1.2660 c3         1 0IU      -0.105400
     42 C32          6.6050     4.1980    -1.2680 c3         1 0IU      -0.055700
     43 C41          7.9080     4.5920    -2.0010 c3         1 0IU      -0.089600
     44 C13          5.3910     4.9480    -1.8700 c3         1 0IU      -0.089600
     45 O12          5.3410     2.5380     0.9130 oh         1 0IU      -0.639000
     46 H11         -4.1260     4.0280     4.4990 h1         1 0IU       0.042867
     47 H12         -3.6940     4.2310     2.7810 h1         1 0IU       0.042867
     48 H13         -5.2720     3.5210     3.2290 h1         1 0IU       0.042867
     49 H21         -3.5390     0.7550     4.9960 h1         1 0IU       0.042867
     50 H22         -1.9630     1.5060     4.5970 h1         1 0IU       0.042867
     51 H23         -3.1690     2.4060     5.5500 h1         1 0IU       0.042867
     52 HA2         -1.9230     0.1750     2.6720 h1         1 0IU       0.071200
     53 HA3         -3.4920    -0.5150     3.0280 h1         1 0IU       0.071200
     54 HB          -4.4760    -1.8210     1.7360 h1         1 0IU       0.049700
     55 HG21        -4.6630    -1.0780    -1.1980 hc         1 0IU       0.051033
     56 HG22        -5.8420    -2.0340    -0.2670 hc         1 0IU       0.051033
     57 HG23        -5.5300    -0.3410     0.1600 hc         1 0IU       0.051033
     58 HD1         -2.5560    -3.2420     2.5430 ha         1 0IU       0.120000
     59 HD2         -3.9780    -3.3090    -1.5510 ha         1 0IU       0.120000
     60 HE1         -1.5740    -5.4990     2.2250 ha         1 0IU       0.112000
     61 HE2         -2.9900    -5.5530    -1.8490 ha         1 0IU       0.112000
     62 HZ          -1.7850    -6.6600     0.0310 ha         1 0IU       0.112000
     63 HA           0.2930     0.1010    -1.4950 hc         1 0IU       0.096700
     64 HN2         -1.2790     1.5410     0.7140 hc         1 0IU       0.072200
     65 HN3         -0.2980     0.2520     1.1710 hc         1 0IU       0.072200
     66 HB1         -0.4050     3.0570    -1.1090 hc         1 0IU       0.056200
     67 HB2          0.5500     2.4190    -2.4300 hc         1 0IU       0.056200
     68 HD21        -3.0990     2.6400    -1.1590 h4         1 0IU       0.173000
     69 HNZ1        -3.5770     0.1590    -5.7040 hn         1 0IU       0.472500
     70 HNZ2        -1.8550     0.1200    -5.7740 hn         1 0IU       0.472500
     71 H121         5.9180     0.1310    -0.0040 h1         1 0IU       0.070700
     72 H2           3.6840     0.5940     1.1710 h1         1 0IU       0.098700
     73 H31          4.1300    -2.0230    -0.3020 hc         1 0IU       0.049700
     74 H32          4.6850    -1.5900     1.2990 hc         1 0IU       0.049700
     75 H1           1.7690    -2.0220     0.4460 hc         1 0IU       0.047700
     76 H2'1         3.0740    -4.1340     0.5560 hc         1 0IU       0.040700
     77 H2'2         3.5910    -3.7640     2.1970 hc         1 0IU       0.040700
     78 H3'1         0.6980    -4.2570     1.2610 hc         1 0IU       0.038200
     79 H3'2         1.6690    -5.3450     2.2480 hc         1 0IU       0.038200
     80 H4'1         0.0440    -4.0190     3.6500 hc         1 0IU       0.037200
     81 H4'2         1.7120    -3.7070     4.1200 hc         1 0IU       0.037200
     82 H5'1        -0.0460    -1.9150     2.3360 hc         1 0IU       0.038200
     83 H5'2         0.4700    -1.5560     3.9810 hc         1 0IU       0.038200
     84 H6'1         2.8560    -1.4330     3.2670 hc         1 0IU       0.040700
     85 H6'2         1.8720    -0.3350     2.3090 hc         1 0IU       0.040700
     86 HN22         2.2250    -0.4540    -1.1750 hn         1 0IU       0.316500
     87 HO1          4.1400     0.3630    -2.2420 ho         1 0IU       0.444000
     88 H122         4.2830     2.5510    -0.8800 h1         1 0IU       0.078700
     89 H211         7.3290     2.1820    -0.8780 hc         1 0IU       0.047700
     90 H221         6.3250     2.3240    -2.3080 hc         1 0IU       0.047700
     91 H3           6.7140     4.5340    -0.2290 hc         1 0IU       0.052700
     92 H41          7.8680     4.2950    -3.0560 hc         1 0IU       0.033367
     93 H42          8.0670     5.6760    -1.9560 hc         1 0IU       0.033367
     94 H43          8.7750     4.1060    -1.5400 hc         1 0IU       0.033367
     95 H51          5.5770     6.0280    -1.8940 hc         1 0IU       0.033367
     96 H52          5.1940     4.6120    -2.8950 hc         1 0IU       0.033367
     97 H53          4.4880     4.7830    -1.2720 hc         1 0IU       0.033367
     98 HO11         6.2860     2.4270     1.1540 ho         1 0IU       0.433000
@<TRIPOS>BOND
     1     1     5 1   
     2     1    46 1   
     3     1    47 1   
     4     1    48 1   
     5     2     5 1   
     6     2    49 1   
     7     2    50 1   
     8     2    51 1   
     9     3     4 2   
    10     3     5 1   
    11     3     9 1   
    12     6     7 1   
    13     6     9 1   
    14     6    10 1   
    15     7     8 2   
    16     7    21 1   
    17     9    52 1   
    18     9    53 1   
    19    10    11 1   
    20    10    12 1   
    21    10    54 1   
    22    11    55 1   
    23    11    56 1   
    24    11    57 1   
    25    12    13 ar  
    26    12    14 ar  
    27    13    15 ar  
    28    13    58 1   
    29    14    16 ar  
    30    14    59 1   
    31    15    17 ar  
    32    15    60 1   
    33    16    17 ar  
    34    16    61 1   
    35    17    62 1   
    36    18    19 2   
    37    18    20 1   
    38    18    38 1   
    39    20    21 1   
    40    20    22 1   
    41    20    63 1   
    42    21    64 1   
    43    21    65 1   
    44    22    23 1   
    45    22    66 1   
    46    22    67 1   
    47    23    24 2   
    48    23    27 1   
    49    24    25 1   
    50    24    68 1   
    51    25    26 1   
    52    26    27 2   
    53    26    28 1   
    54    28    69 1   
    55    28    70 1   
    56    29    30 1   
    57    29    39 1   
    58    29    40 1   
    59    29    71 1   
    60    30    31 1   
    61    30    38 1   
    62    30    72 1   
    63    31    32 1   
    64    31    73 1   
    65    31    74 1   
    66    32    33 1   
    67    32    37 1   
    68    32    75 1   
    69    33    34 1   
    70    33    76 1   
    71    33    77 1   
    72    34    35 1   
    73    34    78 1   
    74    34    79 1   
    75    35    36 1   
    76    35    80 1   
    77    35    81 1   
    78    36    37 1   
    79    36    82 1   
    80    36    83 1   
    81    37    84 1   
    82    37    85 1   
    83    38    86 1   
    84    39    87 1   
    85    40    41 1   
    86    40    45 1   
    87    40    88 1   
    88    41    42 1   
    89    41    89 1   
    90    41    90 1   
    91    42    43 1   
    92    42    44 1   
    93    42    91 1   
    94    43    92 1   
    95    43    93 1   
    96    43    94 1   
    97    44    95 1   
    98    44    96 1   
    99    44    97 1   
   100    45    98 1   
@<TRIPOS>SUBSTRUCTURE
     1 0IU         1 TEMP              0 ****  ****    0 ROOT
