@<TRIPOS>MOLECULE
0IU
   98   100     1     0     0
SMALL
bcc


@<TRIPOS>ATOM
      1 C1          -4.2730     4.0720     2.3690 c3         1 0IU       0.083800
      2 C2          -3.8070     2.1780     3.8720 c3         1 0IU       0.083800
      3 C           -3.6660     1.9340     1.4270 c          1 0IU       0.642100
      4 O           -3.8340     2.3520     0.2920 o          1 0IU      -0.594100
      5 N           -3.8050     2.7080     2.5220 n          1 0IU      -0.473800
      6 N1          -3.1480    -0.2750     0.4470 n          1 0IU      -0.459800
      7 C3          -1.9520    -0.5040    -0.1480 c          1 0IU       0.687100
      8 O1          -1.8180    -1.2850    -1.0760 o          1 0IU      -0.600100
      9 CA          -3.2720     0.4750     1.6700 c3         1 0IU       0.017000
     10 CB          -4.4270    -0.8140    -0.0380 c3         1 0IU       0.172000
     11 CG2         -4.5870    -0.9140    -1.5510 c3         1 0IU      -0.089100
     12 CG          -4.7820    -2.1080     0.6660 ca         1 0IU      -0.109300
     13 CD1         -5.9110    -2.1670     1.4780 ca         1 0IU      -0.117500
     14 CD2         -4.0060    -3.2580     0.5180 ca         1 0IU      -0.117500
     15 CE1         -6.2640    -3.3440     2.1290 ca         1 0IU      -0.133500
     16 CE2         -4.3540    -4.4330     1.1680 ca         1 0IU      -0.133500
     17 CZ          -5.4840    -4.4800     1.9770 ca         1 0IU      -0.125000
     18 C4           1.7600     0.2370     0.3920 c          1 0IU       0.662100
     19 O2           1.8070     0.7750     1.4880 o          1 0IU      -0.598100
     20 CA1          0.4870     0.1920    -0.4390 c3         1 0IU      -0.132700
     21 CN          -0.7500     0.2100     0.4530 c3         1 0IU      -0.145400
     22 CB1          0.5210     1.4090    -1.3890 c3         1 0IU      -0.093700
     23 CG1         -0.5860     1.3990    -2.3870 cc         1 0IU       0.377600
     24 CD21        -1.7090     2.1490    -2.3100 cd         1 0IU      -0.191400
     25 SE2         -2.7410     1.7970    -3.6520 ss         1 0IU      -0.248300
     26 CE11        -1.5570     0.6440    -4.2110 cd         1 0IU       0.693300
     27 ND1         -0.5020     0.5560    -3.4660 nc         1 0IU      -0.721000
     28 NZ          -1.7330    -0.0210    -5.3800 nv         1 0IU      -0.928500
     29 C11          5.0190     0.7930    -0.4250 c3         1 0IU       0.101100
     30 C21          4.1890    -0.2820     0.3000 c3         1 0IU       0.083700
     31 C31          4.8280    -1.6630     0.1780 c3         1 0IU      -0.085400
     32 C7           4.0990    -2.7900     0.9060 c6         1 0IU      -0.057700
     33 C8           4.8260    -4.1150     0.6680 c6         1 0IU      -0.073900
     34 C9           4.1590    -5.2820     1.3870 c6         1 0IU      -0.072400
     35 C10          4.0280    -5.0050     2.8810 c6         1 0IU      -0.075400
     36 C5           3.2880    -3.6950     3.1280 c6         1 0IU      -0.072400
     37 C6           3.9540    -2.5280     2.4060 c6         1 0IU      -0.073900
     38 N2           2.8340    -0.3030    -0.2190 ns         1 0IU      -0.581900
     39 O11          4.9990     0.5960    -1.8210 oh         1 0IU      -0.590800
     40 C12          4.5970     2.2190    -0.0310 c3         1 0IU       0.113100
     41 C22          5.3140     3.2870    -0.8500 c3         1 0IU      -0.105400
     42 C32          4.9490     4.7270    -0.4770 c3         1 0IU      -0.055700
     43 C41          5.7720     5.6980    -1.3190 c3         1 0IU      -0.089600
     44 C13          3.4580     5.0010    -0.6500 c3         1 0IU      -0.089600
     45 O12          4.7880     2.4080     1.3560 oh         1 0IU      -0.576800
     46 H11         -3.8890     4.6740     3.1910 h1         1 0IU       0.042867
     47 H12         -3.9170     4.4980     1.4360 h1         1 0IU       0.042867
     48 H13         -5.3640     4.1310     2.3850 h1         1 0IU       0.042867
     49 H21         -4.7980     1.8280     4.1740 h1         1 0IU       0.042867
     50 H22         -3.1010     1.3610     3.9900 h1         1 0IU       0.042867
     51 H23         -3.5030     2.9630     4.5610 h1         1 0IU       0.042867
     52 HA2         -2.3580     0.4240     2.2610 h1         1 0IU       0.071200
     53 HA3         -4.0290    -0.0070     2.2970 h1         1 0IU       0.071200
     54 HB          -5.1650    -0.0710     0.2740 h1         1 0IU       0.049700
     55 HG21        -4.0430    -1.7450    -1.9890 hc         1 0IU       0.051033
     56 HG22        -5.6480    -1.0510    -1.7630 hc         1 0IU       0.051033
     57 HG23        -4.2620     0.0060    -2.0340 hc         1 0IU       0.051033
     58 HD1         -6.5280    -1.2840     1.6010 ha         1 0IU       0.138000
     59 HD2         -3.1270    -3.2390    -0.1130 ha         1 0IU       0.138000
     60 HE1         -7.1460    -3.3670     2.7570 ha         1 0IU       0.130000
     61 HE2         -3.7420    -5.3160     1.0410 ha         1 0IU       0.130000
     62 HZ          -5.7530    -5.3980     2.4850 ha         1 0IU       0.130000
     63 HA           0.4860    -0.7160    -1.0480 hc         1 0IU       0.096700
     64 HN2         -0.9990     1.2410     0.7130 hc         1 0IU       0.072200
     65 HN3         -0.5260    -0.2900     1.4010 hc         1 0IU       0.072200
     66 HB1          0.4790     2.3240    -0.7940 hc         1 0IU       0.056200
     67 HB2          1.4730     1.4230    -1.9280 hc         1 0IU       0.056200
     68 HD21        -2.0050     2.8440    -1.5420 h4         1 0IU       0.191000
     69 HNZ1        -2.6730    -0.1570    -5.7140 hn         1 0IU       0.417300
     70 HNZ2        -1.1360    -0.8210    -5.5160 hn         1 0IU       0.417300
     71 H121         6.0670     0.6650    -0.1250 h1         1 0IU       0.070700
     72 H2           4.1320    -0.0060     1.3520 h1         1 0IU       0.098700
     73 H31          4.9300    -1.9240    -0.8810 hc         1 0IU       0.049700
     74 H32          5.8490    -1.5890     0.5690 hc         1 0IU       0.049700
     75 H1           3.0890    -2.8880     0.4870 hc         1 0IU       0.047700
     76 H2'1         4.8810    -4.3160    -0.4060 hc         1 0IU       0.040700
     77 H2'2         5.8610    -4.0190     1.0180 hc         1 0IU       0.040700
     78 H3'1         3.1630    -5.4510     0.9620 hc         1 0IU       0.038200
     79 H3'2         4.7270    -6.2000     1.2190 hc         1 0IU       0.038200
     80 H4'1         3.5150    -5.8320     3.3790 hc         1 0IU       0.037200
     81 H4'2         5.0270    -4.9440     3.3250 hc         1 0IU       0.037200
     82 H5'1         2.2540    -3.7930     2.7780 hc         1 0IU       0.038200
     83 H5'2         3.2320    -3.4870     4.2000 hc         1 0IU       0.038200
     84 H6'1         4.9490    -2.3540     2.8350 hc         1 0IU       0.040700
     85 H6'2         3.3780    -1.6160     2.5810 hc         1 0IU       0.040700
     86 HN22         2.6710    -0.8230    -1.0670 hn         1 0IU       0.316500
     87 HO1          4.1060     0.7630    -2.1420 ho         1 0IU       0.405000
     88 H122         3.5170     2.3200    -0.1920 h1         1 0IU       0.078700
     89 H211         6.3980     3.1510    -0.7440 hc         1 0IU       0.047700
     90 H221         5.0930     3.1390    -1.9100 hc         1 0IU       0.047700
     91 H3           5.2090     4.8920     0.5730 hc         1 0IU       0.052700
     92 H41          5.5570     5.5750    -2.3830 hc         1 0IU       0.033367
     93 H42          5.5540     6.7350    -1.0560 hc         1 0IU       0.033367
     94 H43          6.8430     5.5400    -1.1770 hc         1 0IU       0.033367
     95 H51          3.2270     6.0480    -0.4460 hc         1 0IU       0.033367
     96 H52          3.1360     4.7840    -1.6720 hc         1 0IU       0.033367
     97 H53          2.8450     4.4000     0.0230 hc         1 0IU       0.033367
     98 HO11         5.7360     2.4600     1.5200 ho         1 0IU       0.394000
@<TRIPOS>BOND
     1     1     5 1   
     2     1    46 1   
     3     1    47 1   
     4     1    48 1   
     5     2     5 1   
     6     2    49 1   
     7     2    50 1   
     8     2    51 1   
     9     3     4 2   
    10     3     5 1   
    11     3     9 1   
    12     6     7 1   
    13     6     9 1   
    14     6    10 1   
    15     7     8 2   
    16     7    21 1   
    17     9    52 1   
    18     9    53 1   
    19    10    11 1   
    20    10    12 1   
    21    10    54 1   
    22    11    55 1   
    23    11    56 1   
    24    11    57 1   
    25    12    13 ar  
    26    12    14 ar  
    27    13    15 ar  
    28    13    58 1   
    29    14    16 ar  
    30    14    59 1   
    31    15    17 ar  
    32    15    60 1   
    33    16    17 ar  
    34    16    61 1   
    35    17    62 1   
    36    18    19 2   
    37    18    20 1   
    38    18    38 1   
    39    20    21 1   
    40    20    22 1   
    41    20    63 1   
    42    21    64 1   
    43    21    65 1   
    44    22    23 1   
    45    22    66 1   
    46    22    67 1   
    47    23    24 2   
    48    23    27 1   
    49    24    25 1   
    50    24    68 1   
    51    25    26 1   
    52    26    27 2   
    53    26    28 1   
    54    28    69 1   
    55    28    70 1   
    56    29    30 1   
    57    29    39 1   
    58    29    40 1   
    59    29    71 1   
    60    30    31 1   
    61    30    38 1   
    62    30    72 1   
    63    31    32 1   
    64    31    73 1   
    65    31    74 1   
    66    32    33 1   
    67    32    37 1   
    68    32    75 1   
    69    33    34 1   
    70    33    76 1   
    71    33    77 1   
    72    34    35 1   
    73    34    78 1   
    74    34    79 1   
    75    35    36 1   
    76    35    80 1   
    77    35    81 1   
    78    36    37 1   
    79    36    82 1   
    80    36    83 1   
    81    37    84 1   
    82    37    85 1   
    83    38    86 1   
    84    39    87 1   
    85    40    41 1   
    86    40    45 1   
    87    40    88 1   
    88    41    42 1   
    89    41    89 1   
    90    41    90 1   
    91    42    43 1   
    92    42    44 1   
    93    42    91 1   
    94    43    92 1   
    95    43    93 1   
    96    43    94 1   
    97    44    95 1   
    98    44    96 1   
    99    44    97 1   
   100    45    98 1   
@<TRIPOS>SUBSTRUCTURE
     1 0IU         1 TEMP              0 ****  ****    0 ROOT
