@<TRIPOS>MOLECULE
0IV
   69    71     1     0     0
SMALL
No Charge or Current Charge


@<TRIPOS>ATOM
      1 C            4.9190    -0.3720     0.0560 c3         1 0IV      -0.264100
      2 C1           6.2350    -0.7200     0.7430 ca         1 0IV      -0.076300
      3 C2           6.3910    -0.5060     2.1260 ca         1 0IV      -0.084500
      4 C3           7.6030    -0.8280     2.7600 ca         1 0IV      -0.112000
      5 C4           8.6660    -1.3660     2.0150 ca         1 0IV      -0.102000
      6 C5           8.5150    -1.5830     0.6350 ca         1 0IV      -0.112000
      7 C6           7.3020    -1.2610     0.0010 ca         1 0IV      -0.084500
      8 S            4.8340     1.3230    -0.5520 s6         1 0IV       1.204100
      9 O1S          4.8040     2.2530     0.5790 o          1 0IV      -0.535000
     10 O2S          5.7950     1.5180    -1.6390 o          1 0IV      -0.535000
     11 N            3.3270     1.3930    -1.2700 n7         1 0IV      -0.912300
     12 CA           2.0910     1.3470    -0.4180 c6         1 0IV       0.171500
     13 CB           1.6370     2.7760    -0.0320 c6         1 0IV      -0.078400
     14 CG           0.2330     2.7450     0.5980 c6         1 0IV      -0.094400
     15 CD          -0.8040     2.2170    -0.4120 c6         1 0IV       0.107000
     16 C7           0.9540     0.4930    -1.0890 c          1 0IV       0.546000
     17 O            1.2340    -0.5860    -1.6040 o          1 0IV      -0.582000
     18 N1          -0.3800     0.9750    -1.1060 n          1 0IV      -0.377800
     19 CA1         -1.4530     0.1600    -1.7470 c3         1 0IV       0.014000
     20 C8          -2.0420    -0.9610    -0.8650 c          1 0IV       0.603100
     21 O1          -1.7440    -1.1210     0.3130 o          1 0IV      -0.592100
     22 C21         -7.9440     0.1160    -0.5500 c6         1 0IV      -0.110400
     23 C31         -7.5600     0.4930     0.9010 c6         1 0IV       0.199800
     24 N2          -2.9450    -1.7850    -1.5080 ns         1 0IV      -0.492900
     25 CA2         -3.7040    -2.8840    -0.8620 c3         1 0IV      -0.009300
     26 C9          -3.2370    -4.2710    -1.3770 c          1 0IV       0.555900
     27 O2          -2.4610    -4.4370    -2.3140 o          1 0IV      -0.485100
     28 CB1         -5.2370    -2.7060    -1.0340 c3         1 0IV      -0.077400
     29 NE          -6.0830     0.4980     1.0640 nh         1 0IV      -0.735600
     30 C11         -7.3540    -1.2620    -0.9340 c6         1 0IV      -0.075400
     31 CG1         -5.8180    -1.2940    -0.6980 c6         1 0IV      -0.092700
     32 CD1         -5.4820    -0.8310     0.7550 c6         1 0IV       0.211800
     33 NH1         -4.6740     1.8160    -0.1920 n2         1 0IV      -0.915100
     34 NH2         -5.4790     2.5000     1.7950 nv         1 0IV      -1.065200
     35 H1           4.7600    -1.0200    -0.8120 h1         1 0IV       0.109200
     36 H2A          4.0850    -0.4970     0.7530 h1         1 0IV       0.109200
     37 H2           5.5730    -0.0880     2.7110 ha         1 0IV       0.120500
     38 H3           7.7190    -0.6590     3.8290 ha         1 0IV       0.113500
     39 H4           9.6040    -1.6150     2.5060 ha         1 0IV       0.111000
     40 H5           9.3360    -2.0000     0.0570 ha         1 0IV       0.113500
     41 H6           7.1940    -1.4320    -1.0690 ha         1 0IV       0.120500
     42 H            3.3580     0.5290    -1.8130 hn         1 0IV       0.495000
     43 HA           2.2860     0.7990     0.5170 h1         1 0IV       0.107700
     44 HB2          2.3480     3.2290     0.6710 hc         1 0IV       0.059200
     45 HB3          1.6250     3.4180    -0.9240 hc         1 0IV       0.059200
     46 HG2          0.2380     2.1060     1.4930 hc         1 0IV       0.062700
     47 HG3         -0.0560     3.7500     0.9330 hc         1 0IV       0.062700
     48 HD1         -1.7550     2.0400     0.1090 h1         1 0IV       0.053200
     49 HD2         -0.9870     2.9890    -1.1730 h1         1 0IV       0.053200
     50 HA2         -2.2840     0.8130    -2.0380 h1         1 0IV       0.076200
     51 HA3         -1.0680    -0.3020    -2.6650 h1         1 0IV       0.076200
     52 H22         -7.5780     0.8870    -1.2430 hc         1 0IV       0.045700
     53 H31         -7.9930     1.4710     1.1620 h1         1 0IV       0.059700
     54 H32         -8.0070    -0.2460     1.5830 h1         1 0IV       0.059700
     55 HN2         -3.1150    -1.5940    -2.4900 hn         1 0IV       0.315500
     56 HA1         -3.4870    -2.8870     0.2140 h1         1 0IV       0.098700
     57 HB1         -5.4900    -2.9470    -2.0740 hc         1 0IV       0.049200
     58 HB21        -5.7400    -3.4650    -0.4210 hc         1 0IV       0.049200
     59 H11         -7.8410    -2.0460    -0.3380 hc         1 0IV       0.044200
     60 H12         -7.5810    -1.4820    -1.9860 hc         1 0IV       0.044200
     61 HG          -5.3570    -0.5900    -1.4030 hc         1 0IV       0.053700
     62 HD11        -4.3940    -0.7990     0.9080 h1         1 0IV       0.075200
     63 HD21        -5.8760    -1.5820     1.4560 h1         1 0IV       0.075200
     64 HN1         -4.2320     2.7290    -0.0620 hn         1 0IV       0.371400
     65 HN21        -6.0880     2.1250     2.5070 hn         1 0IV       0.452500
     66 HN22        -5.7360     3.4250     1.4830 hn         1 0IV       0.452500
     67 H99         -3.6570    -5.1420    -0.8280 h4         1 0IV      -0.014800
     68 H21         -9.0370     0.0970    -0.6520 hc         1 0IV       0.045700
     69 CZ          -5.3970     1.6340     0.8100 c2         1 0IV       0.807100
@<TRIPOS>BOND
     1     1     2 1   
     2     1     8 1   
     3     1    35 1   
     4     1    36 1   
     5     2     3 ar  
     6     2     7 ar  
     7     3     4 ar  
     8     3    37 1   
     9     4     5 ar  
    10     4    38 1   
    11     5     6 ar  
    12     5    39 1   
    13     6     7 ar  
    14     6    40 1   
    15     7    41 1   
    16     8     9 2   
    17     8    10 2   
    18     8    11 1   
    19    11    12 1   
    20    11    42 1   
    21    12    13 1   
    22    12    16 1   
    23    12    43 1   
    24    13    14 1   
    25    13    44 1   
    26    13    45 1   
    27    14    15 1   
    28    14    46 1   
    29    14    47 1   
    30    15    18 1   
    31    15    48 1   
    32    15    49 1   
    33    16    17 2   
    34    16    18 1   
    35    18    19 1   
    36    19    20 1   
    37    19    50 1   
    38    19    51 1   
    39    20    21 2   
    40    20    24 1   
    41    22    23 1   
    42    22    30 1   
    43    22    52 1   
    44    22    68 1   
    45    23    29 1   
    46    23    53 1   
    47    23    54 1   
    48    24    25 1   
    49    24    55 1   
    50    25    26 1   
    51    25    28 1   
    52    25    56 1   
    53    26    27 2   
    54    26    67 1   
    55    28    31 1   
    56    28    57 1   
    57    28    58 1   
    58    29    32 1   
    59    29    69 1   
    60    30    31 1   
    61    30    59 1   
    62    30    60 1   
    63    31    32 1   
    64    31    61 1   
    65    32    62 1   
    66    32    63 1   
    67    33    64 1   
    68    33    69 2   
    69    34    65 1   
    70    34    66 1   
    71    34    69 1   
@<TRIPOS>SUBSTRUCTURE
     1 0IV         1 TEMP              0 ****  ****    0 ROOT
