@<TRIPOS>MOLECULE
0IV
   69    71     1     0     0
SMALL
abcg2


@<TRIPOS>ATOM
      1 C            4.4860    -0.4550    -0.5690 c3         1 0IV      -0.264100
      2 C1           5.7110    -1.2190    -0.1800 ca         1 0IV      -0.076300
      3 C2           5.7310    -1.9540     1.0020 ca         1 0IV      -0.084500
      4 C3           6.8670    -2.6590     1.3720 ca         1 0IV      -0.112000
      5 C4           7.9980    -2.6300     0.5660 ca         1 0IV      -0.102000
      6 C5           7.9860    -1.8940    -0.6120 ca         1 0IV      -0.112000
      7 C6           6.8500    -1.1890    -0.9810 ca         1 0IV      -0.084500
      8 S            4.5820     1.2150     0.0980 s6         1 0IV       1.204100
      9 O1S          4.5250     1.1190     1.5500 o          1 0IV      -0.535000
     10 O2S          5.7250     1.8620    -0.5300 o          1 0IV      -0.535000
     11 N            3.2600     2.0480    -0.3850 n7         1 0IV      -0.912300
     12 CA           1.9890     2.0440     0.3050 c6         1 0IV       0.171500
     13 CB           1.4740     3.4610     0.5030 c6         1 0IV      -0.078400
     14 CG           0.0890     3.3790     1.1150 c6         1 0IV      -0.094400
     15 CD          -0.8650     2.7020     0.1550 c6         1 0IV       0.107000
     16 C7           0.9870     1.1160    -0.3870 c          1 0IV       0.546000
     17 O            1.3690     0.0540    -0.8610 o          1 0IV      -0.582000
     18 N1          -0.3000     1.4950    -0.4380 n          1 0IV      -0.377800
     19 CA1         -1.2460     0.5750    -1.0100 c3         1 0IV       0.014000
     20 C8          -1.6590    -0.4890    -0.0060 c          1 0IV       0.603100
     21 O1          -1.3670    -0.4190     1.1750 o          1 0IV      -0.592100
     22 C21         -7.6600    -0.7020    -1.0850 c6         1 0IV      -0.110400
     23 C31         -7.6210     0.1620     0.1710 c6         1 0IV       0.199800
     24 N2          -2.4090    -1.4730    -0.5290 ns         1 0IV      -0.492900
     25 CA2         -3.0740    -2.4610     0.2690 c3         1 0IV      -0.009300
     26 C9          -2.2890    -3.7450     0.3800 c          1 0IV       0.555900
     27 O2          -1.2150    -3.9370    -0.1260 o          1 0IV      -0.485100
     28 CB1         -4.4860    -2.7620    -0.2510 c3         1 0IV      -0.077400
     29 NE          -6.2590     0.5380     0.5080 nh         1 0IV      -0.735600
     30 C11         -6.7520    -1.9170    -0.9130 c6         1 0IV      -0.075400
     31 CG1         -5.3430    -1.5180    -0.4710 c6         1 0IV      -0.092700
     32 CD1         -5.4240    -0.6210     0.7650 c6         1 0IV       0.211800
     33 NH1         -4.3790     1.8040     0.0750 n2         1 0IV      -0.915100
     34 NH2         -6.5070     2.6390    -0.4850 nv         1 0IV      -1.065200
     35 H1           4.3810    -0.3520    -1.6490 h1         1 0IV       0.109200
     36 H2A          3.5720    -0.8970    -0.1760 h1         1 0IV       0.109200
     37 H2           4.8500    -1.9820     1.6300 ha         1 0IV       0.120500
     38 H3           6.8690    -3.2340     2.2890 ha         1 0IV       0.113500
     39 H4           8.8830    -3.1840     0.8510 ha         1 0IV       0.111000
     40 H5           8.8640    -1.8680    -1.2450 ha         1 0IV       0.113500
     41 H6           6.8450    -0.6190    -1.9020 ha         1 0IV       0.120500
     42 H            3.2580     2.3030    -1.3650 hn         1 0IV       0.495000
     43 HA           2.1510     1.6110     1.2970 h1         1 0IV       0.107700
     44 HB2          2.1650     4.0030     1.1490 hc         1 0IV       0.059200
     45 HB3          1.4380     3.9920    -0.4530 hc         1 0IV       0.059200
     46 HG2          0.1340     2.8210     2.0540 hc         1 0IV       0.062700
     47 HG3         -0.2980     4.3710     1.3510 hc         1 0IV       0.062700
     48 HD1         -1.7870     2.4250     0.6660 h1         1 0IV       0.053200
     49 HD2         -1.1380     3.3910    -0.6510 h1         1 0IV       0.053200
     50 HA2         -2.1470     1.1250    -1.2890 h1         1 0IV       0.076200
     51 HA3         -0.8540     0.1180    -1.9200 h1         1 0IV       0.076200
     52 H22         -7.3360    -0.1120    -1.9480 hc         1 0IV       0.045700
     53 H31         -8.2650     1.0350     0.0870 h1         1 0IV       0.059700
     54 H32         -8.0190    -0.4110     1.0140 h1         1 0IV       0.059700
     55 HN2         -2.5700    -1.4860    -1.5240 hn         1 0IV       0.315500
     56 HA1         -3.1610    -2.0820     1.2930 h1         1 0IV       0.098700
     57 HB1         -4.4220    -3.3150    -1.1940 hc         1 0IV       0.049200
     58 HB21        -4.9760    -3.4300     0.4640 hc         1 0IV       0.049200
     59 H11         -7.1870    -2.5860    -0.1610 hc         1 0IV       0.044200
     60 H12         -6.7050    -2.4880    -1.8450 hc         1 0IV       0.044200
     61 HG          -4.8910    -0.9210    -1.2720 hc         1 0IV       0.053700
     62 HD11        -4.4420    -0.2750     1.0760 h1         1 0IV       0.075200
     63 HD21        -5.8610    -1.1790     1.6000 h1         1 0IV       0.075200
     64 HN1         -4.0980     2.6950    -0.3160 hn         1 0IV       0.371400
     65 HN21        -7.3430     2.3530    -0.9670 hn         1 0IV       0.452500
     66 HN22        -6.0410     3.3800    -0.9820 hn         1 0IV       0.452500
     67 H99         -2.7890    -4.5220     0.9850 h4         1 0IV      -0.014800
     68 H21         -8.6860    -1.0190    -1.2840 hc         1 0IV       0.045700
     69 CZ          -5.6550     1.6640    -0.0050 c2         1 0IV       0.807100
@<TRIPOS>BOND
     1     1     2 1   
     2     1     8 1   
     3     1    35 1   
     4     1    36 1   
     5     2     3 ar  
     6     2     7 ar  
     7     3     4 ar  
     8     3    37 1   
     9     4     5 ar  
    10     4    38 1   
    11     5     6 ar  
    12     5    39 1   
    13     6     7 ar  
    14     6    40 1   
    15     7    41 1   
    16     8     9 2   
    17     8    10 2   
    18     8    11 1   
    19    11    12 1   
    20    11    42 1   
    21    12    13 1   
    22    12    16 1   
    23    12    43 1   
    24    13    14 1   
    25    13    44 1   
    26    13    45 1   
    27    14    15 1   
    28    14    46 1   
    29    14    47 1   
    30    15    18 1   
    31    15    48 1   
    32    15    49 1   
    33    16    17 2   
    34    16    18 1   
    35    18    19 1   
    36    19    20 1   
    37    19    50 1   
    38    19    51 1   
    39    20    21 2   
    40    20    24 1   
    41    22    23 1   
    42    22    30 1   
    43    22    52 1   
    44    22    68 1   
    45    23    29 1   
    46    23    53 1   
    47    23    54 1   
    48    24    25 1   
    49    24    55 1   
    50    25    26 1   
    51    25    28 1   
    52    25    56 1   
    53    26    27 2   
    54    26    67 1   
    55    28    31 1   
    56    28    57 1   
    57    28    58 1   
    58    29    32 1   
    59    29    69 1   
    60    30    31 1   
    61    30    59 1   
    62    30    60 1   
    63    31    32 1   
    64    31    61 1   
    65    32    62 1   
    66    32    63 1   
    67    33    64 1   
    68    33    69 2   
    69    34    65 1   
    70    34    66 1   
    71    34    69 1   
@<TRIPOS>SUBSTRUCTURE
     1 0IV         1 TEMP              0 ****  ****    0 ROOT
