@<TRIPOS>MOLECULE
0IW
   81    84     1     0     0
SMALL
No Charge or Current Charge


@<TRIPOS>ATOM
      1 N1           4.5000     1.2870    -0.6680 n          1 0IW      -0.416800
      2 C            3.5470     0.7780     0.2340 c          1 0IW       0.662100
      3 O            3.8200     0.5390     1.4000 o          1 0IW      -0.640100
      4 C2           4.1110     1.8020    -2.0220 c6         1 0IW       0.100500
      5 C3           5.2880     2.0690    -3.0020 c6         1 0IW       0.150300
      6 N4           6.4030     2.8150    -2.3680 n3         1 0IW      -0.714600
      7 CM           7.4730     3.1580    -3.3290 c3         1 0IW       0.152100
      8 C5           6.9090     2.0390    -1.2080 c6         1 0IW       0.150300
      9 C6           5.8100     1.7820    -0.1420 c6         1 0IW       0.100500
     10 N            2.2920     0.5510    -0.2800 ns         1 0IW      -0.499900
     11 CA           1.1040     0.1580     0.5130 c3         1 0IW       0.037700
     12 C1           0.2550    -0.8930    -0.2570 c          1 0IW       0.596100
     13 O1           0.4220    -1.1510    -1.4430 o          1 0IW      -0.608100
     14 CB           0.2500     1.4010     0.8830 c3         1 0IW      -0.056100
     15 CG           1.0500     2.5070     1.5640 ca         1 0IW      -0.086300
     16 CD1          1.5540     3.5880     0.8130 ca         1 0IW      -0.099000
     17 CD2          1.3010     2.4510     2.9490 ca         1 0IW      -0.099000
     18 CE1          2.3050     4.5980     1.4390 ca         1 0IW      -0.105000
     19 CE2          2.0500     3.4620     3.5750 ca         1 0IW      -0.105000
     20 CZ           2.5520     4.5360     2.8210 ca         1 0IW      -0.105000
     21 C21         -3.1320    -1.9310     0.1790 c3         1 0IW      -0.066400
     22 C31         -1.6980    -2.4780    -0.0140 c3         1 0IW       0.113700
     23 N2          -0.7160    -1.5170     0.5000 ns         1 0IW      -0.503900
     24 C4          -1.5030    -3.8680     0.6370 c3         1 0IW      -0.090400
     25 C51         -0.1140    -4.4960     0.3800 c3         1 0IW      -0.029100
     26 C13         -0.0010    -5.8920     0.9790 ca         1 0IW      -0.082300
     27 C7          -0.3070    -7.0260     0.2030 ca         1 0IW      -0.107000
     28 C8          -0.2070    -8.3140     0.7590 ca         1 0IW      -0.109000
     29 C14          0.2000    -8.4740     2.0940 ca         1 0IW      -0.111000
     30 C9           0.5050    -7.3450     2.8740 ca         1 0IW      -0.109000
     31 C10          0.4040    -6.0580     2.3180 ca         1 0IW      -0.107000
     32 C12         -4.7920     4.2100    -2.3600 ca         1 0IW      -0.055000
     33 C22         -5.2050     3.0800    -3.0860 ca         1 0IW      -0.127000
     34 C32         -5.2860     1.8260    -2.4570 ca         1 0IW      -0.017000
     35 C41         -4.9540     1.7000    -1.0910 ca         1 0IW      -0.266500
     36 S1          -5.0360     0.0900    -0.2800 sy         1 0IW       1.044500
     37 O11         -5.9190    -0.7900    -1.0570 o          1 0IW      -0.523000
     38 O2          -5.2420     0.2970     1.1600 o          1 0IW      -0.523000
     39 C52         -4.5360     2.8350    -0.3650 ca         1 0IW      -0.017000
     40 C61         -4.4570     4.0860    -1.0010 ca         1 0IW      -0.127000
     41 H21          3.4300     1.0930    -2.5120 h1         1 0IW       0.052950
     42 H22          3.5590     2.7420    -1.8810 h1         1 0IW       0.052950
     43 H31          5.6530     1.1010    -3.3780 h1         1 0IW       0.041700
     44 H32          4.9000     2.6220    -3.8700 h1         1 0IW       0.041700
     45 HM1          7.0730     3.7620    -4.1550 h1         1 0IW       0.032033
     46 HM2          8.2640     3.7410    -2.8370 h1         1 0IW       0.032033
     47 HM3          7.9260     2.2520    -3.7530 h1         1 0IW       0.032033
     48 H51          7.3010     1.0690    -1.5480 h1         1 0IW       0.041700
     49 H52          7.7450     2.5690    -0.7260 h1         1 0IW       0.041700
     50 H61          5.6240     2.7220     0.3960 h1         1 0IW       0.052950
     51 H62          6.2060     1.0660     0.5920 h1         1 0IW       0.052950
     52 H            2.1700     0.7150    -1.2690 hn         1 0IW       0.319500
     53 HA           1.4390    -0.3270     1.4390 h1         1 0IW       0.098700
     54 HB2         -0.2190     1.7910    -0.0300 hc         1 0IW       0.054200
     55 HB3         -0.5770     1.0920     1.5330 hc         1 0IW       0.054200
     56 HD1          1.3710     3.6420    -0.2580 ha         1 0IW       0.108000
     57 HD2          0.9210     1.6200     3.5390 ha         1 0IW       0.108000
     58 HE1          2.6950     5.4270     0.8530 ha         1 0IW       0.113000
     59 HE2          2.2420     3.4120     4.6450 ha         1 0IW       0.113000
     60 HZ           3.1330     5.3180     3.3050 ha         1 0IW       0.113000
     61 H11         -2.6900     0.2070    -0.0380 h1         1 0IW       0.099700
     62 H221        -3.1630    -0.5950    -1.5580 h1         1 0IW       0.099700
     63 H211        -3.3490    -1.8650     1.2540 hc         1 0IW       0.065700
     64 H24         -3.8450    -2.6520    -0.2430 hc         1 0IW       0.065700
     65 H3          -1.5430    -2.6000    -1.0950 h1         1 0IW       0.085700
     66 HN2         -0.7770    -1.2500     1.4750 hn         1 0IW       0.315500
     67 H41         -1.6680    -3.7900     1.7190 hc         1 0IW       0.051200
     68 H42         -2.2710    -4.5500     0.2500 hc         1 0IW       0.051200
     69 H511         0.0700    -4.5340    -0.7010 hc         1 0IW       0.054700
     70 H521         0.6660    -3.8490     0.7990 hc         1 0IW       0.054700
     71 H2          -0.6250    -6.9110    -0.8310 ha         1 0IW       0.110500
     72 H7          -0.4450    -9.1870     0.1540 ha         1 0IW       0.112000
     73 H4           0.2770    -9.4700     2.5240 ha         1 0IW       0.112000
     74 H5           0.8180    -7.4680     3.9080 ha         1 0IW       0.112000
     75 H6           0.6400    -5.1890     2.9290 ha         1 0IW       0.110500
     76 H8          -5.4620     3.1760    -4.1380 ha         1 0IW       0.122000
     77 H33         -5.6040     0.9590    -3.0340 ha         1 0IW       0.137000
     78 H9          -4.2690     2.7540     0.6880 ha         1 0IW       0.137000
     79 H10         -4.1350     4.9600    -0.4400 ha         1 0IW       0.122000
     80 C11         -3.3550    -0.5420    -0.4800 c3         1 0IW      -0.297400
     81 H1          -4.7300     5.1800    -2.8500 ha         1 0IW       0.119000
@<TRIPOS>BOND
     1     1     2 1   
     2     1     4 1   
     3     1     9 1   
     4     2     3 2   
     5     2    10 1   
     6     4     5 1   
     7     4    41 1   
     8     4    42 1   
     9     5     6 1   
    10     5    43 1   
    11     5    44 1   
    12     6     7 1   
    13     6     8 1   
    14     7    45 1   
    15     7    46 1   
    16     7    47 1   
    17     8     9 1   
    18     8    48 1   
    19     8    49 1   
    20     9    50 1   
    21     9    51 1   
    22    10    11 1   
    23    10    52 1   
    24    11    12 1   
    25    11    14 1   
    26    11    53 1   
    27    12    13 2   
    28    12    23 1   
    29    14    15 1   
    30    14    54 1   
    31    14    55 1   
    32    15    16 ar  
    33    15    17 ar  
    34    16    18 ar  
    35    16    56 1   
    36    17    19 ar  
    37    17    57 1   
    38    18    20 ar  
    39    18    58 1   
    40    19    20 ar  
    41    19    59 1   
    42    20    60 1   
    43    21    22 1   
    44    21    63 1   
    45    21    64 1   
    46    21    80 1   
    47    22    23 1   
    48    22    24 1   
    49    22    65 1   
    50    23    66 1   
    51    24    25 1   
    52    24    67 1   
    53    24    68 1   
    54    25    26 1   
    55    25    69 1   
    56    25    70 1   
    57    26    27 ar  
    58    26    31 ar  
    59    27    28 ar  
    60    27    71 1   
    61    28    29 ar  
    62    28    72 1   
    63    29    30 ar  
    64    29    73 1   
    65    30    31 ar  
    66    30    74 1   
    67    31    75 1   
    68    32    33 ar  
    69    32    40 ar  
    70    32    81 1   
    71    33    34 ar  
    72    33    76 1   
    73    34    35 ar  
    74    34    77 1   
    75    35    36 1   
    76    35    39 ar  
    77    36    37 2   
    78    36    38 2   
    79    36    80 1   
    80    39    40 ar  
    81    39    78 1   
    82    40    79 1   
    83    61    80 1   
    84    62    80 1   
@<TRIPOS>SUBSTRUCTURE
     1 0IW         1 TEMP              0 ****  ****    0 ROOT
