@<TRIPOS>MOLECULE
0IW
   81    84     1     0     0
SMALL
abcg2


@<TRIPOS>ATOM
      1 N1           4.3910     1.3940    -0.5020 n          1 0IW      -0.416800
      2 C            3.3660     0.9320     0.2780 c          1 0IW       0.662100
      3 O            3.5100     0.7210     1.4760 o          1 0IW      -0.640100
      4 C2           4.2650     1.7640    -1.8980 c6         1 0IW       0.100500
      5 C3           5.5670     1.5000    -2.6350 c6         1 0IW       0.150300
      6 N4           6.6780     2.1760    -2.0010 n3         1 0IW      -0.714600
      7 CM           7.9060     1.9960    -2.7410 c3         1 0IW       0.152100
      8 C5           6.8080     1.7290    -0.6300 c6         1 0IW       0.150300
      9 C6           5.5370     2.0030     0.1490 c6         1 0IW       0.100500
     10 N            2.1880     0.6610    -0.3570 ns         1 0IW      -0.499900
     11 CA           0.9880     0.3990     0.3860 c3         1 0IW       0.037700
     12 C1           0.1390    -0.6170    -0.3700 c          1 0IW       0.596100
     13 O1           0.1360    -0.6560    -1.5910 o          1 0IW      -0.608100
     14 CB           0.1370     1.6770     0.5850 c3         1 0IW      -0.056100
     15 CG           0.9410     2.7970     1.1740 ca         1 0IW      -0.086300
     16 CD1          1.5930     3.7090     0.3480 ca         1 0IW      -0.099000
     17 CD2          1.1030     2.9100     2.5520 ca         1 0IW      -0.099000
     18 CE1          2.3990     4.7040     0.8840 ca         1 0IW      -0.105000
     19 CE2          1.8980     3.9090     3.0930 ca         1 0IW      -0.105000
     20 CZ           2.5540     4.8070     2.2600 ca         1 0IW      -0.105000
     21 C21         -3.0330    -1.8820     0.2910 c3         1 0IW      -0.066400
     22 C31         -1.6170    -2.3380    -0.0720 c3         1 0IW       0.113700
     23 N2          -0.6350    -1.3880     0.4110 ns         1 0IW      -0.503900
     24 C4          -1.3410    -3.7350     0.4770 c3         1 0IW      -0.090400
     25 C51          0.0300    -4.2810     0.0790 c3         1 0IW      -0.029100
     26 C13          0.2300    -5.6820     0.5860 ca         1 0IW      -0.082300
     27 C7          -0.2010    -6.7790    -0.1590 ca         1 0IW      -0.107000
     28 C8          -0.0560    -8.0710     0.3260 ca         1 0IW      -0.109000
     29 C14          0.5220    -8.2880     1.5710 ca         1 0IW      -0.111000
     30 C9           0.9560    -7.2040     2.3220 ca         1 0IW      -0.109000
     31 C10          0.8100    -5.9120     1.8320 ca         1 0IW      -0.107000
     32 C12         -5.3910     3.9800    -2.0060 ca         1 0IW      -0.055000
     33 C22         -5.8150     2.8110    -2.6250 ca         1 0IW      -0.127000
     34 C32         -5.7030     1.5950    -1.9680 ca         1 0IW      -0.017000
     35 C41         -5.1620     1.5730    -0.6900 ca         1 0IW      -0.266500
     36 S1          -4.9880     0.0210     0.1500 sy         1 0IW       1.044500
     37 O11         -5.9840    -0.9120    -0.3740 o          1 0IW      -0.523000
     38 O2          -4.9590     0.2740     1.5900 o          1 0IW      -0.523000
     39 C52         -4.7340     2.7330    -0.0570 ca         1 0IW      -0.017000
     40 C61         -4.8510     3.9420    -0.7270 ca         1 0IW      -0.127000
     41 H21          3.5010     1.1720    -2.3970 h1         1 0IW       0.052950
     42 H22          3.9900     2.8210    -1.9980 h1         1 0IW       0.052950
     43 H31          5.7290     0.4080    -2.6840 h1         1 0IW       0.041700
     44 H32          5.4620     1.8580    -3.6610 h1         1 0IW       0.041700
     45 HM1          7.7910     2.3780    -3.7560 h1         1 0IW       0.032033
     46 HM2          8.7130     2.5530    -2.2630 h1         1 0IW       0.032033
     47 HM3          8.2220     0.9430    -2.8100 h1         1 0IW       0.032033
     48 H51          7.0450     0.6520    -0.5730 h1         1 0IW       0.041700
     49 H52          7.6320     2.2650    -0.1540 h1         1 0IW       0.041700
     50 H61          5.3850     3.0870     0.2290 h1         1 0IW       0.052950
     51 H62          5.6380     1.6090     1.1560 h1         1 0IW       0.052950
     52 H            2.0380     0.9780    -1.3000 hn         1 0IW       0.319500
     53 HA           1.2700     0.0040     1.3620 h1         1 0IW       0.098700
     54 HB2         -0.2720     1.9800    -0.3830 hc         1 0IW       0.054200
     55 HB3         -0.7110     1.4370     1.2320 hc         1 0IW       0.054200
     56 HD1          1.4670     3.6400    -0.7260 ha         1 0IW       0.108000
     57 HD2          0.6020     2.2070     3.2080 ha         1 0IW       0.108000
     58 HE1          2.9030     5.4020     0.2270 ha         1 0IW       0.113000
     59 HE2          2.0090     3.9870     4.1670 ha         1 0IW       0.113000
     60 HZ           3.1750     5.5860     2.6820 ha         1 0IW       0.113000
     61 H11         -2.6630     0.2370    -0.0520 h1         1 0IW       0.099700
     62 H221        -3.3680    -0.6040    -1.4400 h1         1 0IW       0.099700
     63 H211        -3.1250    -1.8150     1.3780 hc         1 0IW       0.065700
     64 H24         -3.7380    -2.6410    -0.0500 hc         1 0IW       0.065700
     65 H3          -1.5260    -2.3660    -1.1600 h1         1 0IW       0.085700
     66 HN2         -0.5300    -1.3070     1.4120 hn         1 0IW       0.315500
     67 H41         -1.4330    -3.7280     1.5680 hc         1 0IW       0.051200
     68 H42         -2.1190    -4.4060     0.1050 hc         1 0IW       0.051200
     69 H511         0.1240    -4.2610    -1.0100 hc         1 0IW       0.054700
     70 H521         0.8140    -3.6330     0.4770 hc         1 0IW       0.054700
     71 H2          -0.6530    -6.6180    -1.1310 ha         1 0IW       0.110500
     72 H7          -0.3910    -8.9110    -0.2690 ha         1 0IW       0.112000
     73 H4           0.6390    -9.2950     1.9500 ha         1 0IW       0.112000
     74 H5           1.4130    -7.3640     3.2910 ha         1 0IW       0.112000
     75 H6           1.1550    -5.0710     2.4230 ha         1 0IW       0.110500
     76 H8          -6.2400     2.8460    -3.6200 ha         1 0IW       0.122000
     77 H33         -6.0370     0.6850    -2.4470 ha         1 0IW       0.137000
     78 H9          -4.3220     2.7050     0.9430 ha         1 0IW       0.137000
     79 H10         -4.5270     4.8540    -0.2450 ha         1 0IW       0.122000
     80 C11         -3.3650    -0.5430    -0.3500 c3         1 0IW      -0.297400
     81 H1          -5.4850     4.9260    -2.5230 ha         1 0IW       0.119000
@<TRIPOS>BOND
     1     1     2 1   
     2     1     4 1   
     3     1     9 1   
     4     2     3 2   
     5     2    10 1   
     6     4     5 1   
     7     4    41 1   
     8     4    42 1   
     9     5     6 1   
    10     5    43 1   
    11     5    44 1   
    12     6     7 1   
    13     6     8 1   
    14     7    45 1   
    15     7    46 1   
    16     7    47 1   
    17     8     9 1   
    18     8    48 1   
    19     8    49 1   
    20     9    50 1   
    21     9    51 1   
    22    10    11 1   
    23    10    52 1   
    24    11    12 1   
    25    11    14 1   
    26    11    53 1   
    27    12    13 2   
    28    12    23 1   
    29    14    15 1   
    30    14    54 1   
    31    14    55 1   
    32    15    16 ar  
    33    15    17 ar  
    34    16    18 ar  
    35    16    56 1   
    36    17    19 ar  
    37    17    57 1   
    38    18    20 ar  
    39    18    58 1   
    40    19    20 ar  
    41    19    59 1   
    42    20    60 1   
    43    21    22 1   
    44    21    63 1   
    45    21    64 1   
    46    21    80 1   
    47    22    23 1   
    48    22    24 1   
    49    22    65 1   
    50    23    66 1   
    51    24    25 1   
    52    24    67 1   
    53    24    68 1   
    54    25    26 1   
    55    25    69 1   
    56    25    70 1   
    57    26    27 ar  
    58    26    31 ar  
    59    27    28 ar  
    60    27    71 1   
    61    28    29 ar  
    62    28    72 1   
    63    29    30 ar  
    64    29    73 1   
    65    30    31 ar  
    66    30    74 1   
    67    31    75 1   
    68    32    33 ar  
    69    32    40 ar  
    70    32    81 1   
    71    33    34 ar  
    72    33    76 1   
    73    34    35 ar  
    74    34    77 1   
    75    35    36 1   
    76    35    39 ar  
    77    36    37 2   
    78    36    38 2   
    79    36    80 1   
    80    39    40 ar  
    81    39    78 1   
    82    40    79 1   
    83    61    80 1   
    84    62    80 1   
@<TRIPOS>SUBSTRUCTURE
     1 0IW         1 TEMP              0 ****  ****    0 ROOT
