@<TRIPOS>MOLECULE
0J0
   57    61     1     0     0
SMALL
abcg2


@<TRIPOS>ATOM
      1 C13          1.0560    -1.0790    -0.0970 cc         1 0J0      -0.200000
      2 C15          3.5670    -0.9250    -0.2230 c6         1 0J0       0.090300
      3 C17          4.8870     1.0140    -1.1290 c5         1 0J0       0.125800
      4 C20          5.1120     0.5160     1.1420 c5         1 0J0       0.125800
      5 C21          3.8830    -0.3850     1.1760 c6         1 0J0      -0.118400
      6 C28         -5.3940    -1.3120     0.0950 c          1 0J0       0.581200
      7 O29         -6.2560    -2.1840     0.1290 o          1 0J0      -0.540000
      8 N02         -5.7280     0.0300     0.1230 n          1 0J0      -0.283000
      9 C01         -7.1330     0.3950     0.1950 c3         1 0J0       0.067300
     10 C27         -3.9890    -1.6310     0.0210 cc         1 0J0      -0.405200
     11 C09         -3.0380    -0.6710    -0.0200 cd         1 0J0       0.226900
     12 C08         -3.4100     0.7220     0.0120 ca         1 0J0      -0.140800
     13 C07         -2.4610     1.7490    -0.0270 ca         1 0J0      -0.044000
     14 C06         -2.8480     3.0700     0.0050 ca         1 0J0      -0.161000
     15 C05         -4.2050     3.3800     0.0790 ca         1 0J0      -0.049000
     16 C04         -5.1590     2.3840     0.1180 ca         1 0J0      -0.163000
     17 C03         -4.7800     1.0340     0.0850 ca         1 0J0       0.126600
     18 O10         -1.7280    -0.8950    -0.0930 os         1 0J0      -0.358100
     19 C12          0.2240    -2.1610    -0.1990 cd         1 0J0       0.225300
     20 N26          0.9840    -3.2560    -0.4000 nd         1 0J0      -0.322000
     21 N25          2.2230    -2.9110    -0.4260 nc         1 0J0      -0.182800
     22 N14          2.2860    -1.6040    -0.2470 na         1 0J0       0.099800
     23 C19          6.2960    -0.1810     0.4640 c5         1 0J0      -0.103900
     24 C18          6.1520     0.1540    -1.0360 c5         1 0J0      -0.103900
     25 N22          4.8610     1.6990     0.2260 n4         1 0J0      -0.513000
     26 C23          3.6130     2.4540     0.5140 c3         1 0J0       0.078400
     27 C16          3.6390     0.1600    -1.3030 c6         1 0J0      -0.118400
     28 H13          0.8740    -0.0300     0.0610 h4         1 0J0       0.166000
     29 H15          4.2930    -1.7020    -0.4640 h1         1 0J0       0.108700
     30 H17          4.9340     1.7820    -1.9000 hx         1 0J0       0.111700
     31 H20          5.3380     0.8960     2.1380 hx         1 0J0       0.111700
     32 H21          3.0290     0.1300     1.6160 hc         1 0J0       0.094450
     33 H21A         4.1090    -1.2140     1.8470 hc         1 0J0       0.094450
     34 H24          5.8240     3.4480    -0.4390 hx         1 0J0       0.095200
     35 H24A         5.9380     3.1530     1.3090 hx         1 0J0       0.095200
     36 H24B         6.9400     2.2260     0.1880 hx         1 0J0       0.095200
     37 H01         -7.7330    -0.5070     0.2100 h1         1 0J0       0.059700
     38 H01A        -7.3400     0.9630     1.1020 h1         1 0J0       0.059700
     39 H01B        -7.4230     0.9900    -0.6700 h1         1 0J0       0.059700
     40 H07         -1.4090     1.5050    -0.0850 ha         1 0J0       0.104000
     41 H06         -2.1070     3.8560    -0.0260 ha         1 0J0       0.111000
     42 H05         -4.5240     4.4130     0.1070 ha         1 0J0       0.122000
     43 H04         -6.2000     2.6660     0.1750 ha         1 0J0       0.131000
     44 H19          7.2450     0.1720     0.8630 hc         1 0J0       0.093200
     45 H19A         6.2600    -1.2520     0.6570 hc         1 0J0       0.093200
     46 H18          6.0480    -0.7360    -1.6570 hc         1 0J0       0.093200
     47 H18A         7.0210     0.6930    -1.4100 hc         1 0J0       0.093200
     48 H23          2.7330     1.8270     0.4770 hx         1 0J0       0.095200
     49 H23A         3.6910     2.8840     1.5080 hx         1 0J0       0.095200
     50 H23B         3.5120     3.2470    -0.2230 hx         1 0J0       0.095200
     51 H16          3.6960    -0.3090    -2.2860 hc         1 0J0       0.094450
     52 H16A         2.7410     0.7790    -1.3210 hc         1 0J0       0.094450
     53 C24          5.9720     2.6910     0.3260 c3         1 0J0       0.078400
     54 C11         -1.2600    -2.2300    -0.1210 c3         1 0J0       0.141300
     55 H27         -3.7540    -2.6860    -0.0030 ha         1 0J0       0.216000
     56 H11         -1.5790    -2.7660     0.7790 h1         1 0J0       0.075700
     57 H11A        -1.6630    -2.7640    -0.9880 h1         1 0J0       0.075700
@<TRIPOS>BOND
     1     1    19 2   
     2     1    22 1   
     3     1    28 1   
     4     2     5 1   
     5     2    22 1   
     6     2    27 1   
     7     2    29 1   
     8     3    24 1   
     9     3    25 1   
    10     3    27 1   
    11     3    30 1   
    12     4     5 1   
    13     4    23 1   
    14     4    25 1   
    15     4    31 1   
    16     5    32 1   
    17     5    33 1   
    18     6     7 2   
    19     6     8 1   
    20     6    10 1   
    21     8     9 1   
    22     8    17 1   
    23     9    37 1   
    24     9    38 1   
    25     9    39 1   
    26    10    11 2   
    27    10    55 1   
    28    11    12 1   
    29    11    18 1   
    30    12    13 ar  
    31    12    17 ar  
    32    13    14 ar  
    33    13    40 1   
    34    14    15 ar  
    35    14    41 1   
    36    15    16 ar  
    37    15    42 1   
    38    16    17 ar  
    39    16    43 1   
    40    18    54 1   
    41    19    20 1   
    42    19    54 1   
    43    20    21 2   
    44    21    22 1   
    45    23    24 1   
    46    23    44 1   
    47    23    45 1   
    48    24    46 1   
    49    24    47 1   
    50    25    26 1   
    51    25    53 1   
    52    26    48 1   
    53    26    49 1   
    54    26    50 1   
    55    27    51 1   
    56    27    52 1   
    57    34    53 1   
    58    35    53 1   
    59    36    53 1   
    60    54    56 1   
    61    54    57 1   
@<TRIPOS>SUBSTRUCTURE
     1 0J0         1 TEMP              0 ****  ****    0 ROOT
