@<TRIPOS>MOLECULE
0J0
   57    61     1     0     0
SMALL
No Charge or Current Charge


@<TRIPOS>ATOM
      1 C13          1.1160    -1.1860    -0.0160 cc         1 0J0      -0.200000
      2 C15          3.6290    -0.9960    -0.3650 c6         1 0J0       0.090300
      3 C17          4.8860     1.1550    -1.0430 c5         1 0J0       0.125800
      4 C20          5.2520     0.3230     1.1490 c5         1 0J0       0.125800
      5 C21          4.0320    -0.6450     1.0950 c6         1 0J0      -0.118400
      6 C28         -5.4470    -1.2920     0.4850 c          1 0J0       0.581200
      7 O29         -6.2430    -2.1750     0.7710 o          1 0J0      -0.540000
      8 N02         -5.8240     0.0660     0.3060 n          1 0J0      -0.283000
      9 C01         -7.2580     0.4260     0.4730 c3         1 0J0       0.067300
     10 C27         -4.0260    -1.5950     0.3060 cc         1 0J0      -0.405200
     11 C09         -3.1230    -0.6170    -0.0160 cd         1 0J0       0.226900
     12 C08         -3.5140     0.7790    -0.1980 ca         1 0J0      -0.140800
     13 C07         -2.5730     1.7800    -0.5270 ca         1 0J0      -0.044000
     14 C06         -2.9860     3.1100    -0.6920 ca         1 0J0      -0.161000
     15 C05         -4.3360     3.4480    -0.5290 ca         1 0J0      -0.049000
     16 C04         -5.2750     2.4560    -0.2020 ca         1 0J0      -0.163000
     17 C03         -4.8750     1.1080    -0.0330 ca         1 0J0       0.126600
     18 O10         -1.7880    -0.8920    -0.1840 os         1 0J0      -0.358100
     19 C12          0.2360    -2.2000    -0.2670 cd         1 0J0       0.225300
     20 N26          0.9230    -3.2750    -0.7920 nd         1 0J0      -0.322000
     21 N25          2.1900    -2.9720    -0.8840 nc         1 0J0      -0.182800
     22 N14          2.3280    -1.6990    -0.4160 na         1 0J0       0.099800
     23 C19          6.4740    -0.1860     0.3190 c5         1 0J0      -0.103900
     24 C18          6.2320     0.3650    -1.1340 c5         1 0J0      -0.103900
     25 N22          4.9180     1.6650     0.4300 n4         1 0J0      -0.513000
     26 C23          3.6020     2.3220     0.8990 c3         1 0J0       0.078400
     27 C16          3.6360     0.2580    -1.2840 c6         1 0J0      -0.118400
     28 H13          0.9750    -0.1940     0.3900 h4         1 0J0       0.166000
     29 H15          4.3840    -1.6930    -0.7560 h1         1 0J0       0.108700
     30 H17          4.8560     2.0210    -1.7120 hx         1 0J0       0.111700
     31 H20          5.5070     0.5390     2.1910 hx         1 0J0       0.111700
     32 H21          3.1880    -0.2130     1.6450 hc         1 0J0       0.094450
     33 H21A         4.2830    -1.5710     1.6310 hc         1 0J0       0.094450
     34 H24          5.7800     3.6150     0.0610 hx         1 0J0       0.095200
     35 H24A         6.0550     2.9900     1.7090 hx         1 0J0       0.095200
     36 H24B         6.9870     2.3350     0.3390 hx         1 0J0       0.095200
     37 H01         -7.8790    -0.4430     0.7210 h1         1 0J0       0.059700
     38 H01A        -7.3610     1.1600     1.2820 h1         1 0J0       0.059700
     39 H01B        -7.6390     0.8610    -0.4600 h1         1 0J0       0.059700
     40 H07         -1.5210     1.5350    -0.6570 ha         1 0J0       0.104000
     41 H06         -2.2590     3.8780    -0.9460 ha         1 0J0       0.111000
     42 H05         -4.6570     4.4810    -0.6570 ha         1 0J0       0.122000
     43 H04         -6.3110     2.7580    -0.0840 ha         1 0J0       0.131000
     44 H19          7.4110     0.2060     0.7320 hc         1 0J0       0.093200
     45 H19A         6.5670    -1.2780     0.3460 hc         1 0J0       0.093200
     46 H18          6.1940    -0.4300    -1.8870 hc         1 0J0       0.093200
     47 H18A         7.0490     1.0290    -1.4380 hc         1 0J0       0.093200
     48 H23          2.7690     1.6300     0.7750 hx         1 0J0       0.095200
     49 H23A         3.6950     2.5940     1.9520 hx         1 0J0       0.095200
     50 H23B         3.4200     3.2190     0.3040 hx         1 0J0       0.095200
     51 H16          3.6210    -0.0660    -2.3340 hc         1 0J0       0.094450
     52 H16A         2.7220     0.8490    -1.1530 hc         1 0J0       0.094450
     53 C24          6.0180     2.7270     0.6500 c3         1 0J0       0.078400
     54 C11         -1.2550    -2.2250    -0.0290 c3         1 0J0       0.141300
     55 H27         -3.7680    -2.6350     0.4470 ha         1 0J0       0.216000
     56 H11         -1.4390    -2.6040     0.9840 h1         1 0J0       0.075700
     57 H11A        -1.7170    -2.9140    -0.7480 h1         1 0J0       0.075700
@<TRIPOS>BOND
     1     1    19 2   
     2     1    22 1   
     3     1    28 1   
     4     2     5 1   
     5     2    22 1   
     6     2    27 1   
     7     2    29 1   
     8     3    24 1   
     9     3    25 1   
    10     3    27 1   
    11     3    30 1   
    12     4     5 1   
    13     4    23 1   
    14     4    25 1   
    15     4    31 1   
    16     5    32 1   
    17     5    33 1   
    18     6     7 2   
    19     6     8 1   
    20     6    10 1   
    21     8     9 1   
    22     8    17 1   
    23     9    37 1   
    24     9    38 1   
    25     9    39 1   
    26    10    11 2   
    27    10    55 1   
    28    11    12 1   
    29    11    18 1   
    30    12    13 ar  
    31    12    17 ar  
    32    13    14 ar  
    33    13    40 1   
    34    14    15 ar  
    35    14    41 1   
    36    15    16 ar  
    37    15    42 1   
    38    16    17 ar  
    39    16    43 1   
    40    18    54 1   
    41    19    20 1   
    42    19    54 1   
    43    20    21 2   
    44    21    22 1   
    45    23    24 1   
    46    23    44 1   
    47    23    45 1   
    48    24    46 1   
    49    24    47 1   
    50    25    26 1   
    51    25    53 1   
    52    26    48 1   
    53    26    49 1   
    54    26    50 1   
    55    27    51 1   
    56    27    52 1   
    57    34    53 1   
    58    35    53 1   
    59    36    53 1   
    60    54    56 1   
    61    54    57 1   
@<TRIPOS>SUBSTRUCTURE
     1 0J0         1 TEMP              0 ****  ****    0 ROOT
