@<TRIPOS>MOLECULE
0J2
   29    30     1     0     0
SMALL
bcc


@<TRIPOS>ATOM
      1 C1          -3.2390     0.7810     0.2270 c3         1 0J2      -0.203400
      2 C2          -2.6070    -1.0020    -1.4380 c3         1 0J2      -0.073100
      3 C3          -4.6900     0.3290     0.4780 c          1 0J2       0.924600
      4 O1          -5.5880     1.1230     0.1310 o          1 0J2      -0.843800
      5 O2          -4.8570    -0.7700     1.0450 o          1 0J2      -0.843800
      6 N1          -0.5580     1.3010    -0.2490 nc         1 0J2      -0.393400
      7 N2           0.7100     1.6960    -0.2650 na         1 0J2      -0.394100
      8 C4          -2.2790    -0.3610    -0.0840 c3         1 0J2      -0.075000
      9 C5           2.7150    -1.3050     0.2850 c          1 0J2       0.754700
     10 C6           1.5520    -0.4680     0.1060 cc         1 0J2      -0.462400
     11 N4           3.9180    -0.6060     0.2130 ns         1 0J2      -0.527400
     12 C7           1.7760     0.8950    -0.1030 cd         1 0J2       0.443600
     13 C8          -0.8360     0.0590    -0.0670 cd         1 0J2       0.333300
     14 C9           0.2080    -0.9760     0.1420 c          1 0J2       0.489000
     15 N5           2.9690     1.5000    -0.1580 nd         1 0J2      -0.780300
     16 O4          -0.1010    -2.1480     0.3290 o          1 0J2      -0.520100
     17 C10          4.0200     0.7300     0.0030 cc         1 0J2       0.772800
     18 H1          -3.2170     1.5280    -0.5700 hc         1 0J2       0.025700
     19 H2          -2.9020     1.2990     1.1320 hc         1 0J2       0.025700
     20 H3          -3.6240    -1.3960    -1.4320 hc         1 0J2       0.032033
     21 H4          -2.5350    -0.2650    -2.2400 hc         1 0J2       0.032033
     22 H5          -1.9370    -1.8270    -1.6750 hc         1 0J2       0.032033
     23 H7          -2.4080    -1.1260     0.6850 hc         1 0J2       0.102700
     24 H8           5.3340     2.2520    -0.1820 hn         1 0J2       0.451800
     25 H9           6.0710     0.7160     0.0800 hn         1 0J2       0.451800
     26 H10          4.7590    -1.1550     0.3400 hn         1 0J2       0.314500
     27 H11          0.8560     2.6840    -0.4060 hn         1 0J2       0.478800
     28 O3           2.7370    -2.5040     0.4830 o          1 0J2      -0.593500
     29 N3           5.2350     1.2610    -0.0400 nv         1 0J2      -0.953800
@<TRIPOS>BOND
     1     1     3 1   
     2     1     8 1   
     3     1    18 1   
     4     1    19 1   
     5     2     8 1   
     6     2    20 1   
     7     2    21 1   
     8     2    22 1   
     9     3     4 1   
    10     3     5 1   
    11     6     7 1   
    12     6    13 2   
    13     7    12 1   
    14     7    27 1   
    15     8    13 1   
    16     8    23 1   
    17     9    10 1   
    18     9    11 1   
    19     9    28 2   
    20    10    12 2   
    21    10    14 1   
    22    11    17 1   
    23    11    26 1   
    24    12    15 1   
    25    13    14 1   
    26    14    16 2   
    27    15    17 2   
    28    17    29 1   
    29    24    29 1   
    30    25    29 1   
@<TRIPOS>SUBSTRUCTURE
     1 0J2         1 TEMP              0 ****  ****    0 ROOT
