@<TRIPOS>MOLECULE
0J2
   29    30     1     0     0
SMALL
No Charge or Current Charge


@<TRIPOS>ATOM
      1 C1          -3.2220     0.6540     0.5120 c3         1 0J2      -0.203400
      2 C2          -2.7870    -0.6420    -1.6930 c3         1 0J2      -0.073100
      3 C3          -4.6170     0.0560     0.7750 c          1 0J2       0.714000
      4 O1          -5.5100     0.2880    -0.0260 o          1 0J2      -0.738500
      5 O2          -4.7600    -0.6500     1.7610 o          1 0J2      -0.738500
      6 N1          -0.5850     1.3600    -0.6950 nc         1 0J2      -0.393400
      7 N2           0.7750     1.6670    -0.6820 na         1 0J2      -0.449300
      8 C4          -2.2930    -0.3450    -0.2550 c3         1 0J2      -0.075000
      9 C5           2.7330    -1.2460     0.5040 c          1 0J2       0.612200
     10 C6           1.6200    -0.3850     0.1100 cc         1 0J2      -0.462400
     11 N4           3.9200    -0.6300     0.4010 ns         1 0J2      -0.460400
     12 C7           1.8610     0.8990    -0.3140 cd         1 0J2       0.443600
     13 C8          -0.8300     0.1100    -0.2710 cd         1 0J2       0.333300
     14 C9           0.2300    -0.8740     0.1550 c          1 0J2       0.489000
     15 N5           3.1220     1.4420    -0.3900 nd         1 0J2      -0.780300
     16 O4          -0.0420    -2.0150     0.5150 o          1 0J2      -0.520100
     17 C10          4.0580     0.6240    -0.0210 cc         1 0J2       0.772800
     18 H1          -3.3040     1.5560    -0.1070 hc         1 0J2       0.025700
     19 H2          -2.7170     0.8270     1.4710 hc         1 0J2       0.025700
     20 H3          -3.7830    -1.1000    -1.6850 hc         1 0J2       0.032033
     21 H4          -2.8360     0.2770    -2.2900 hc         1 0J2       0.032033
     22 H5          -2.1060    -1.3390    -2.1960 hc         1 0J2       0.032033
     23 H7          -2.3640    -1.2920     0.2920 hc         1 0J2       0.102700
     24 H8           5.2960     2.0980    -0.2150 hn         1 0J2       0.507000
     25 H9           5.9190     0.7680     0.6480 hn         1 0J2       0.507000
     26 H10          4.7360    -1.1690     0.6330 hn         1 0J2       0.314500
     27 H11          1.0180     2.6090    -0.9920 hn         1 0J2       0.534000
     28 O3           2.6650    -2.3990     0.8910 o          1 0J2      -0.518000
     29 N3           5.2830     1.0970    -0.0670 nv         1 0J2      -1.064200
@<TRIPOS>BOND
     1     1     3 1   
     2     1     8 1   
     3     1    18 1   
     4     1    19 1   
     5     2     8 1   
     6     2    20 1   
     7     2    21 1   
     8     2    22 1   
     9     3     4 1   
    10     3     5 1   
    11     6     7 1   
    12     6    13 2   
    13     7    12 1   
    14     7    27 1   
    15     8    13 1   
    16     8    23 1   
    17     9    10 1   
    18     9    11 1   
    19     9    28 2   
    20    10    12 2   
    21    10    14 1   
    22    11    17 1   
    23    11    26 1   
    24    12    15 1   
    25    13    14 1   
    26    14    16 2   
    27    15    17 2   
    28    17    29 1   
    29    24    29 1   
    30    25    29 1   
@<TRIPOS>SUBSTRUCTURE
     1 0J2         1 TEMP              0 ****  ****    0 ROOT
