@<TRIPOS>MOLECULE
0J3
   54    57     1     0     0
SMALL
abcg2


@<TRIPOS>ATOM
      1 CAQ         -4.9850    17.4320    34.7800 c6         1 0J3       0.211300
      2 CAO         -6.0500    18.1740    35.5770 c6         1 0J3       0.149300
      3 NBD         -5.5580    18.7180    36.8520 n3         1 0J3      -0.720600
      4 CAA         -5.8400    17.8570    37.9920 c3         1 0J3       0.151100
      5 CAP         -4.1320    19.0520    36.7920 c6         1 0J3       0.149300
      6 CAR         -3.7080    19.4690    35.3920 c6         1 0J3       0.211300
      7 NBE         -3.8960    18.3510    34.4650 nh         1 0J3      -0.834400
      8 CAX         -2.9790    18.0310    33.5060 ca         1 0J3       0.300000
      9 CAM         -2.9510    16.7900    32.8760 ca         1 0J3      -0.191000
     10 CBB         -1.9880    16.5100    31.8910 ca         1 0J3      -0.042000
     11 CAJ         -2.0010    18.9830    33.0740 ca         1 0J3       0.309900
     12 NAT         -1.0850    18.7410    32.1720 nb         1 0J3      -0.625000
     13 CBA         -1.0390    17.5190    31.5710 ca         1 0J3       0.237000
     14 CAN         -0.0210    17.2810    30.6210 ca         1 0J3      -0.044000
     15 CAY          0.0380    16.0580    30.0070 ca         1 0J3      -0.160300
     16 CBF          1.1240    15.7420    29.0280 c3         1 0J3       0.343300
     17 FAE          0.6390    15.2300    27.8680 f          1 0J3      -0.113333
     18 FAF          1.8720    16.8130    28.6950 f          1 0J3      -0.113333
     19 FAD          1.9890    14.8060    29.5080 f          1 0J3      -0.113333
     20 CAL         -0.9030    15.0440    30.2850 ca         1 0J3      -0.148000
     21 CAZ         -1.9130    15.2440    31.2060 ca         1 0J3       0.305000
     22 NAU         -2.8260    14.2560    31.5130 nu         1 0J3      -0.947200
     23 CAS         -3.0320    13.1080    30.6480 c3         1 0J3       0.255100
     24 CAV         -3.5390    13.4570    29.2600 ca         1 0J3      -0.132300
     25 CAK         -2.9080    12.9560    28.1300 ca         1 0J3      -0.036000
     26 CAH         -4.6500    14.2880    29.1000 ca         1 0J3      -0.062000
     27 CAG         -5.1270    14.6140    27.8360 ca         1 0J3      -0.116000
     28 CAI         -4.5000    14.1160    26.7010 ca         1 0J3      -0.041000
     29 CAW         -3.3960    13.2930    26.8730 ca         1 0J3      -0.161200
     30 NBC         -2.7130    12.7680    25.6880 no         1 0J3       0.672200
     31 OAC         -3.1680    13.0430    24.5840 o          1 0J3      -0.392000
     32 OAB         -1.7140    12.0760    25.8510 o          1 0J3      -0.392000
     33 H1          -5.4260    17.0640    33.8510 h1         1 0J3       0.050200
     34 H2          -4.6190    16.5590    35.3370 h1         1 0J3       0.050200
     35 H3          -6.4340    18.9900    34.9570 h1         1 0J3       0.054700
     36 H4          -6.8840    17.5020    35.7760 h1         1 0J3       0.054700
     37 H6          -5.5020    18.3470    38.9070 h1         1 0J3       0.034700
     38 H7          -6.9130    17.6850    38.0720 h1         1 0J3       0.034700
     39 H8          -5.3330    16.8790    37.9280 h1         1 0J3       0.034700
     40 H9          -3.5110    18.1920    37.0910 h1         1 0J3       0.054700
     41 H10         -3.9160    19.8630    37.4920 h1         1 0J3       0.054700
     42 H11         -2.6560    19.7410    35.4270 h1         1 0J3       0.050200
     43 H12         -4.2710    20.3510    35.0690 h1         1 0J3       0.050200
     44 H13         -3.6570    16.0340    33.1770 ha         1 0J3       0.111000
     45 H14         -2.0040    19.9810    33.4950 h4         1 0J3       0.022100
     46 H15          0.6860    18.0680    30.4050 ha         1 0J3       0.148000
     47 H16         -0.8210    14.1020    29.7650 ha         1 0J3       0.127000
     48 H17         -3.6560    14.5630    31.9890 hn         1 0J3       0.467000
     49 H18         -3.7580    12.4650    31.1470 h1         1 0J3       0.067700
     50 H19         -2.1080    12.5330    30.5630 h1         1 0J3       0.067700
     51 H20         -2.0410    12.3180    28.2190 ha         1 0J3       0.153000
     52 H21         -5.1450    14.6890    29.9760 ha         1 0J3       0.116000
     53 H22         -5.9900    15.2580    27.7320 ha         1 0J3       0.130000
     54 H23         -4.8520    14.3600    25.7110 ha         1 0J3       0.155000
@<TRIPOS>BOND
     1     1     2 1   
     2     1     7 1   
     3     1    33 1   
     4     1    34 1   
     5     2     3 1   
     6     2    35 1   
     7     2    36 1   
     8     3     4 1   
     9     3     5 1   
    10     4    37 1   
    11     4    38 1   
    12     4    39 1   
    13     5     6 1   
    14     5    40 1   
    15     5    41 1   
    16     6     7 1   
    17     6    42 1   
    18     6    43 1   
    19     7     8 1   
    20     8     9 ar  
    21     8    11 ar  
    22     9    10 ar  
    23     9    44 1   
    24    10    13 ar  
    25    10    21 ar  
    26    11    12 ar  
    27    11    45 1   
    28    12    13 ar  
    29    13    14 ar  
    30    14    15 ar  
    31    14    46 1   
    32    15    16 1   
    33    15    20 ar  
    34    16    17 1   
    35    16    18 1   
    36    16    19 1   
    37    20    21 ar  
    38    20    47 1   
    39    21    22 1   
    40    22    23 1   
    41    22    48 1   
    42    23    24 1   
    43    23    49 1   
    44    23    50 1   
    45    24    25 ar  
    46    24    26 ar  
    47    25    29 ar  
    48    25    51 1   
    49    26    27 ar  
    50    26    52 1   
    51    27    28 ar  
    52    27    53 1   
    53    28    29 ar  
    54    28    54 1   
    55    29    30 1   
    56    30    31 1   
    57    30    32 1   
@<TRIPOS>SUBSTRUCTURE
     1 0J3         1 TEMP              0 ****  ****    0 ROOT
