@<TRIPOS>MOLECULE
0J3
   54    57     1     0     0
SMALL
No Charge or Current Charge


@<TRIPOS>ATOM
      1 CAQ         -4.7980    16.9340    33.5120 c6         1 0J3       0.211300
      2 CAO         -6.0910    17.8110    33.5800 c6         1 0J3       0.149300
      3 NBD         -6.1820    18.6840    34.8010 n3         1 0J3      -0.720600
      4 CAA         -7.0790    18.1550    35.8520 c3         1 0J3       0.151100
      5 CAP         -4.8270    19.0600    35.3340 c6         1 0J3       0.149300
      6 CAR         -3.7050    19.0990    34.2460 c6         1 0J3       0.211300
      7 NBE         -3.5440    17.7660    33.5680 nh         1 0J3      -0.834400
      8 CAX         -2.4020    17.4590    32.7660 ca         1 0J3       0.300000
      9 CAM         -2.1240    16.1240    32.4220 ca         1 0J3      -0.191000
     10 CBB         -1.0120    15.8310    31.5930 ca         1 0J3      -0.042000
     11 CAJ         -1.5060    18.4500    32.2780 ca         1 0J3       0.309900
     12 NAT         -0.4340    18.1850    31.4880 nb         1 0J3      -0.625000
     13 CBA         -0.1930    16.8990    31.1380 ca         1 0J3       0.237000
     14 CAN          0.8940    16.6170    30.2900 ca         1 0J3      -0.044000
     15 CAY          1.1790    15.3030    29.8670 ca         1 0J3      -0.160300
     16 CBF          2.3710    15.0270    28.9430 c3         1 0J3       0.343300
     17 FAE          2.2110    13.8990    28.2130 f          1 0J3      -0.113333
     18 FAF          2.5740    16.0320    28.0590 f          1 0J3      -0.113333
     19 FAD          3.5150    14.8830    29.6470 f          1 0J3      -0.113333
     20 CAL          0.3600    14.2530    30.3300 ca         1 0J3      -0.148000
     21 CAZ         -0.7200    14.5040    31.1880 ca         1 0J3       0.305000
     22 NAU         -1.4980    13.4180    31.6030 nu         1 0J3      -0.947200
     23 CAS         -2.4520    12.7370    30.7150 c3         1 0J3       0.255100
     24 CAV         -3.6920    13.6060    30.5430 ca         1 0J3      -0.132300
     25 CAK         -3.6630    14.7200    29.6790 ca         1 0J3      -0.036000
     26 CAH         -4.8650    13.3220    31.2680 ca         1 0J3      -0.062000
     27 CAG         -5.9980    14.1400    31.1290 ca         1 0J3      -0.116000
     28 CAI         -5.9680    15.2540    30.2730 ca         1 0J3      -0.041000
     29 CAW         -4.7950    15.5580    29.5430 ca         1 0J3      -0.161200
     30 NBC         -4.7470    16.7560    28.6460 no         1 0J3       0.672200
     31 OAC         -5.7580    17.4660    28.5640 o          1 0J3      -0.392000
     32 OAB         -3.6940    16.9930    28.0400 o          1 0J3      -0.392000
     33 H1          -4.8320    16.3600    32.5750 h1         1 0J3       0.050200
     34 H2          -4.8060    16.2080    34.3380 h1         1 0J3       0.050200
     35 H3          -6.0980    18.4490    32.6840 h1         1 0J3       0.054700
     36 H4          -6.9730    17.1590    33.4940 h1         1 0J3       0.054700
     37 H6          -7.1590    18.8640    36.6870 h1         1 0J3       0.034700
     38 H7          -8.0880    17.9870    35.4530 h1         1 0J3       0.034700
     39 H8          -6.7020    17.2010    36.2450 h1         1 0J3       0.034700
     40 H9          -4.5100    18.3350    36.0990 h1         1 0J3       0.054700
     41 H10         -4.8780    20.0380    35.8340 h1         1 0J3       0.054700
     42 H11         -2.7630    19.3900    34.7340 h1         1 0J3       0.050200
     43 H12         -3.9500    19.8760    33.5060 h1         1 0J3       0.050200
     44 H13         -2.7710    15.3340    32.7840 ha         1 0J3       0.111000
     45 H14         -1.6620    19.5020    32.5120 h4         1 0J3       0.022100
     46 H15          1.5170    17.4420    29.9550 ha         1 0J3       0.148000
     47 H16          0.5650    13.2280    30.0330 ha         1 0J3       0.127000
     48 H17         -1.8690    13.5520    32.5430 hn         1 0J3       0.467000
     49 H18         -2.7460    11.7700    31.1490 h1         1 0J3       0.067700
     50 H19         -1.9970    12.5310    29.7360 h1         1 0J3       0.067700
     51 H20         -2.7490    14.9350    29.1280 ha         1 0J3       0.153000
     52 H21         -4.8980    12.4700    31.9440 ha         1 0J3       0.116000
     53 H22         -6.9010    13.9130    31.6910 ha         1 0J3       0.130000
     54 H23         -6.8570    15.8760    30.1870 ha         1 0J3       0.155000
@<TRIPOS>BOND
     1     1     2 1   
     2     1     7 1   
     3     1    33 1   
     4     1    34 1   
     5     2     3 1   
     6     2    35 1   
     7     2    36 1   
     8     3     4 1   
     9     3     5 1   
    10     4    37 1   
    11     4    38 1   
    12     4    39 1   
    13     5     6 1   
    14     5    40 1   
    15     5    41 1   
    16     6     7 1   
    17     6    42 1   
    18     6    43 1   
    19     7     8 1   
    20     8     9 ar  
    21     8    11 ar  
    22     9    10 ar  
    23     9    44 1   
    24    10    13 ar  
    25    10    21 ar  
    26    11    12 ar  
    27    11    45 1   
    28    12    13 ar  
    29    13    14 ar  
    30    14    15 ar  
    31    14    46 1   
    32    15    16 1   
    33    15    20 ar  
    34    16    17 1   
    35    16    18 1   
    36    16    19 1   
    37    20    21 ar  
    38    20    47 1   
    39    21    22 1   
    40    22    23 1   
    41    22    48 1   
    42    23    24 1   
    43    23    49 1   
    44    23    50 1   
    45    24    25 ar  
    46    24    26 ar  
    47    25    29 ar  
    48    25    51 1   
    49    26    27 ar  
    50    26    52 1   
    51    27    28 ar  
    52    27    53 1   
    53    28    29 ar  
    54    28    54 1   
    55    29    30 1   
    56    30    31 1   
    57    30    32 1   
@<TRIPOS>SUBSTRUCTURE
     1 0J3         1 TEMP              0 ****  ****    0 ROOT
