@<TRIPOS>MOLECULE
0J4
   26    27     1     0     0
SMALL
No Charge or Current Charge


@<TRIPOS>ATOM
      1 O1          -1.7900    -2.5510    -0.5630 o          1 0J4      -0.524000
      2 C4          -2.0200    -1.3900    -0.2750 c          1 0J4       0.612200
      3 N1          -3.2700    -0.9880    -0.0070 ns         1 0J4      -0.461400
      4 C1          -3.5810     0.2640     0.3210 cc         1 0J4       0.766800
      5 N5          -4.8510     0.5130     0.5520 nv         1 0J4      -1.070200
      6 N2          -2.7760     1.2750     0.4330 nd         1 0J4      -0.784300
      7 C2          -1.4630     0.9600     0.1740 cd         1 0J4       0.440600
      8 C3          -1.0480    -0.3040    -0.1720 cc         1 0J4      -0.453400
      9 C6           0.3840    -0.5390    -0.4330 c          1 0J4       0.500000
     10 O2           0.8090    -1.6440    -0.7570 o          1 0J4      -0.508100
     11 N3          -0.5040     1.9510     0.2550 na         1 0J4      -0.446300
     12 N4           0.8750     1.8930     0.0450 nc         1 0J4      -0.438400
     13 C5           1.2920     0.6580    -0.2880 cd         1 0J4       0.403300
     14 C7           2.7770     0.4510    -0.5430 c3         1 0J4      -0.248000
     15 C10          3.6030     1.7480    -0.7720 c3         1 0J4      -0.055100
     16 C8           3.3780    -0.3880     0.5820 c          1 0J4       0.740000
     17 O4           3.8980    -1.4540     0.2930 o          1 0J4      -0.719000
     18 O3           3.2960     0.0340     1.7250 o          1 0J4      -0.719000
     19 H1          -5.5140    -0.0230     0.0070 hn         1 0J4       0.503000
     20 H2          -5.0500     1.5030     0.6100 hn         1 0J4       0.503000
     21 H5           2.8860    -0.1260    -1.4690 hc         1 0J4       0.066700
     22 H6           4.6450     1.5000    -1.0060 hc         1 0J4       0.019367
     23 H7           3.1970     2.3240    -1.6130 hc         1 0J4       0.019367
     24 H8           3.6020     2.3870     0.1200 hc         1 0J4       0.019367
     25 H4          -3.9910    -1.6880    -0.0330 hn         1 0J4       0.309500
     26 H3          -0.8750     2.8670     0.5120 hn         1 0J4       0.523000
@<TRIPOS>BOND
     1     1     2 2   
     2     2     3 1   
     3     2     8 1   
     4     3     4 1   
     5     3    25 1   
     6     4     5 1   
     7     4     6 2   
     8     5    19 1   
     9     5    20 1   
    10     6     7 1   
    11     7     8 2   
    12     7    11 1   
    13     8     9 1   
    14     9    10 2   
    15     9    13 1   
    16    11    12 1   
    17    11    26 1   
    18    12    13 2   
    19    13    14 1   
    20    14    15 1   
    21    14    16 1   
    22    14    21 1   
    23    15    22 1   
    24    15    23 1   
    25    15    24 1   
    26    16    17 1   
    27    16    18 1   
@<TRIPOS>SUBSTRUCTURE
     1 0J4         1 TEMP              0 ****  ****    0 ROOT
