@<TRIPOS>MOLECULE
0J4
   26    27     1     0     0
SMALL
bcc


@<TRIPOS>ATOM
      1 O1          -1.7970    -2.5740    -0.5200 o          1 0J4      -0.599500
      2 C4          -1.9660    -1.3950    -0.2770 c          1 0J4       0.754700
      3 N1          -3.2530    -0.9340    -0.0070 ns         1 0J4      -0.528400
      4 C1          -3.5640     0.3550     0.2790 cc         1 0J4       0.766800
      5 N5          -4.8360     0.6480     0.5170 nv         1 0J4      -0.959800
      6 N2          -2.6590     1.3030     0.3300 nd         1 0J4      -0.784300
      7 C2          -1.3960     0.9350     0.0780 cd         1 0J4       0.440600
      8 C3          -0.9630    -0.3580    -0.2290 cc         1 0J4      -0.453400
      9 C6           0.4300    -0.6010    -0.4810 c          1 0J4       0.500000
     10 O2           0.9220    -1.6820    -0.7860 o          1 0J4      -0.508100
     11 N3          -0.4830     1.9170     0.1260 na         1 0J4      -0.391100
     12 N4           0.8230     1.7700    -0.0940 nc         1 0J4      -0.438400
     13 C5           1.2870     0.6040    -0.3640 cd         1 0J4       0.403300
     14 C7           2.7530     0.4280    -0.5780 c3         1 0J4      -0.248000
     15 C10          3.5170     1.7430    -0.6920 c3         1 0J4      -0.055100
     16 C8           3.3430    -0.4170     0.5830 c          1 0J4       0.950600
     17 O4           4.4290    -0.9810     0.3590 o          1 0J4      -0.824300
     18 O3           2.7020    -0.4170     1.6520 o          1 0J4      -0.824300
     19 H1          -5.5710    -0.0360     0.4590 hn         1 0J4       0.447800
     20 H2          -5.0910     1.6000     0.7160 hn         1 0J4       0.447800
     21 H5           2.8940    -0.1320    -1.5080 hc         1 0J4       0.066700
     22 H6           4.5700     1.5400    -0.8810 hc         1 0J4       0.019367
     23 H7           3.1420     2.3570    -1.5120 hc         1 0J4       0.019367
     24 H8           3.4460     2.3340     0.2220 hc         1 0J4       0.019367
     25 H4          -3.9880    -1.6300    -0.0290 hn         1 0J4       0.309500
     26 H3          -0.7850     2.8570     0.3350 hn         1 0J4       0.467800
@<TRIPOS>BOND
     1     1     2 2   
     2     2     3 1   
     3     2     8 1   
     4     3     4 1   
     5     3    25 1   
     6     4     5 1   
     7     4     6 2   
     8     5    19 1   
     9     5    20 1   
    10     6     7 1   
    11     7     8 2   
    12     7    11 1   
    13     8     9 1   
    14     9    10 2   
    15     9    13 1   
    16    11    12 1   
    17    11    26 1   
    18    12    13 2   
    19    13    14 1   
    20    14    15 1   
    21    14    16 1   
    22    14    21 1   
    23    15    22 1   
    24    15    23 1   
    25    15    24 1   
    26    16    17 1   
    27    16    18 1   
@<TRIPOS>SUBSTRUCTURE
     1 0J4         1 TEMP              0 ****  ****    0 ROOT
