@<TRIPOS>MOLECULE
0J5
   23    24     1     0     0
SMALL
No Charge or Current Charge


@<TRIPOS>ATOM
      1 O4          -3.4660     1.2430     1.6040 o          1 0J5      -0.722500
      2 C8          -3.5870     0.3020     0.8370 c          1 0J5       0.739000
      3 O3          -4.0930    -0.7630     1.1510 o          1 0J5      -0.722500
      4 C7          -2.9410     0.4070    -0.5320 c3         1 0J5      -0.261700
      5 C5          -1.5140    -0.0820    -0.4400 cc         1 0J5       0.401300
      6 C6          -0.4770     0.9150    -0.0230 c          1 0J5       0.499000
      7 O2          -0.7320     2.0920     0.2200 o          1 0J5      -0.507100
      8 C3           0.8840     0.3750     0.0650 cc         1 0J5      -0.454400
      9 C4           1.9940     1.2320     0.4820 c          1 0J5       0.611200
     10 O1           1.9340     2.4080     0.7940 o          1 0J5      -0.524000
     11 N4          -1.2790    -1.3620    -0.7530 nd         1 0J5      -0.442400
     12 N3           0.0620    -1.7710    -0.6520 na         1 0J5      -0.446300
     13 C2           1.1100    -0.9460    -0.2510 cd         1 0J5       0.440600
     14 N2           2.3630    -1.5150    -0.1950 nd         1 0J5      -0.783300
     15 C1           3.2950    -0.6970     0.1800 cc         1 0J5       0.766800
     16 N5           4.5080    -1.1990     0.2400 nv         1 0J5      -1.070200
     17 N1           3.1660     0.5850     0.5020 ns         1 0J5      -0.460400
     18 H2          -3.4620    -0.2500    -1.2390 hc         1 0J5       0.048700
     19 H3          -2.9220     1.4490    -0.8690 hc         1 0J5       0.048700
     20 H5           4.5640    -2.1110    -0.1950 hn         1 0J5       0.503000
     21 H6           5.2670    -0.5710     0.0070 hn         1 0J5       0.503000
     22 H7           3.9710     1.1060     0.8030 hn         1 0J5       0.309500
     23 H4           0.2890    -2.7400    -0.8810 hn         1 0J5       0.523000
@<TRIPOS>BOND
     1     1     2 1   
     2     2     3 1   
     3     2     4 1   
     4     4     5 1   
     5     4    18 1   
     6     4    19 1   
     7     5     6 1   
     8     5    11 2   
     9     6     7 2   
    10     6     8 1   
    11     8     9 1   
    12     8    13 2   
    13     9    10 2   
    14     9    17 1   
    15    11    12 1   
    16    12    13 1   
    17    12    23 1   
    18    13    14 1   
    19    14    15 2   
    20    15    16 1   
    21    15    17 1   
    22    16    20 1   
    23    16    21 1   
    24    17    22 1   
@<TRIPOS>SUBSTRUCTURE
     1 0J5         1 TEMP              0 ****  ****    0 ROOT
