@<TRIPOS>MOLECULE
0J5
   23    24     1     0     0
SMALL
abcg2


@<TRIPOS>ATOM
      1 O4          -4.5930     1.1780     0.9750 o          1 0J5      -0.722500
      2 C8          -3.5440     0.5150     0.8920 c          1 0J5       0.739000
      3 O3          -2.9660    -0.0990     1.8060 o          1 0J5      -0.722500
      4 C7          -2.9140     0.4060    -0.5170 c3         1 0J5      -0.261700
      5 C5          -1.4970    -0.0380    -0.4570 cc         1 0J5       0.401300
      6 C6          -0.4980     0.9050     0.0940 c          1 0J5       0.499000
      7 O2          -0.8430     2.0230     0.4640 o          1 0J5      -0.507100
      8 C3           0.8430     0.3900     0.1200 cc         1 0J5      -0.454400
      9 C4           1.9700     1.1480     0.6070 c          1 0J5       0.611200
     10 O1           1.9610     2.2800     1.0490 o          1 0J5      -0.524000
     11 N4          -1.1990    -1.2120    -0.8860 nd         1 0J5      -0.442400
     12 N3           0.0660    -1.6250    -0.8170 na         1 0J5      -0.446300
     13 C2           1.0960    -0.9030    -0.3490 cd         1 0J5       0.440600
     14 N2           2.2910    -1.5050    -0.3840 nd         1 0J5      -0.783300
     15 C1           3.3100    -0.8080     0.0610 cc         1 0J5       0.766800
     16 N5           4.5260    -1.3410     0.0560 nv         1 0J5      -1.070200
     17 N1           3.1760     0.4550     0.5370 ns         1 0J5      -0.460400
     18 H2          -3.4900    -0.3190    -1.0980 hc         1 0J5       0.048700
     19 H3          -2.9930     1.3630    -1.0370 hc         1 0J5       0.048700
     20 H5           4.6540    -2.2700    -0.3090 hn         1 0J5       0.503000
     21 H6           5.3410    -0.8330     0.3530 hn         1 0J5       0.503000
     22 H7           3.9950     0.9510     0.8670 hn         1 0J5       0.309500
     23 H4           0.2400    -2.5540    -1.1720 hn         1 0J5       0.523000
@<TRIPOS>BOND
     1     1     2 1   
     2     2     3 1   
     3     2     4 1   
     4     4     5 1   
     5     4    18 1   
     6     4    19 1   
     7     5     6 1   
     8     5    11 2   
     9     6     7 2   
    10     6     8 1   
    11     8     9 1   
    12     8    13 2   
    13     9    10 2   
    14     9    17 1   
    15    11    12 1   
    16    12    13 1   
    17    12    23 1   
    18    13    14 1   
    19    14    15 2   
    20    15    16 1   
    21    15    17 1   
    22    16    20 1   
    23    16    21 1   
    24    17    22 1   
@<TRIPOS>SUBSTRUCTURE
     1 0J5         1 TEMP              0 ****  ****    0 ROOT
