@<TRIPOS>MOLECULE
0J6
   34    37     1     0     0
SMALL
No Charge or Current Charge


@<TRIPOS>ATOM
      1 O14          0.3710    -1.2770    -0.1830 o          1 0J6      -0.571100
      2 C13          0.8590    -0.1570    -0.0790 c          1 0J6       0.624700
      3 C15          2.3620     0.0380    -0.0360 ca         1 0J6      -0.189600
      4 C20          3.2040    -1.0980    -0.1170 ca         1 0J6       0.027000
      5 C19          4.5910    -0.9030    -0.0760 ca         1 0J6      -0.168000
      6 C23          5.6600    -1.8390    -0.1360 cc         1 0J6      -0.175100
      7 N22          6.8290    -1.0860    -0.0510 na         1 0J6       0.020500
      8 N21          6.5680     0.2880     0.0610 nc         1 0J6      -0.280400
      9 C18          5.1730     0.3310     0.0390 ca         1 0J6      -0.056000
     10 C17          4.3660     1.4740     0.1220 ca         1 0J6      -0.081000
     11 C16          2.9620     1.3270     0.0840 ca         1 0J6      -0.089000
     12 N12          0.0970     1.0030     0.0030 ns         1 0J6      -0.146000
     13 C8          -1.3070     1.2370     0.0040 ca         1 0J6      -0.012000
     14 C7          -2.2780     0.2090    -0.0380 ca         1 0J6      -0.087000
     15 C9          -1.7350     2.5750     0.0550 ca         1 0J6      -0.154000
     16 C10         -3.1020     2.8890     0.0610 ca         1 0J6      -0.081000
     17 C11         -4.0600     1.8660     0.0170 ca         1 0J6      -0.129000
     18 C6          -3.6610     0.5120    -0.0320 ca         1 0J6      -0.116500
     19 C2          -4.6570    -0.5720    -0.0770 cc         1 0J6       0.456000
     20 N3          -6.0140    -0.4220    -0.0770 na         1 0J6      -0.213700
     21 N4          -6.6280    -1.6310    -0.1240 nc         1 0J6      -0.207800
     22 N5          -5.6470    -2.4920    -0.1520 nd         1 0J6      -0.041000
     23 N1          -4.4210    -1.8680    -0.1230 nd         1 0J6      -0.377000
     24 H1           2.7970    -2.1040    -0.2090 ha         1 0J6       0.140000
     25 H2           5.6910    -2.9200    -0.2270 h4         1 0J6       0.234000
     26 H3           7.7830    -1.4380    -0.0640 hn         1 0J6       0.374000
     27 H4           4.8150     2.4600     0.2130 ha         1 0J6       0.131000
     28 H5           2.3570     2.2280     0.1500 ha         1 0J6       0.109000
     29 H6           0.6450     1.8480     0.0780 hn         1 0J6       0.155000
     30 H7          -1.9760    -0.8330    -0.0720 ha         1 0J6       0.177000
     31 H8          -1.0040     3.3800     0.0900 ha         1 0J6       0.114000
     32 H9          -3.4190     3.9290     0.1000 ha         1 0J6       0.118000
     33 H10         -5.1130     2.1380     0.0230 ha         1 0J6       0.107000
     34 H11         -6.5290     0.4480    -0.0480 hn         1 0J6       0.385000
@<TRIPOS>BOND
     1     1     2 2   
     2     2     3 1   
     3     2    12 1   
     4     3     4 ar  
     5     3    11 ar  
     6     4     5 ar  
     7     4    24 1   
     8     5     6 2   
     9     5     9 ar  
    10     6     7 1   
    11     6    25 1   
    12     7     8 1   
    13     7    26 1   
    14     8     9 2   
    15     9    10 ar  
    16    10    11 ar  
    17    10    27 1   
    18    11    28 1   
    19    12    13 1   
    20    12    29 1   
    21    13    14 ar  
    22    13    15 ar  
    23    14    18 ar  
    24    14    30 1   
    25    15    16 ar  
    26    15    31 1   
    27    16    17 ar  
    28    16    32 1   
    29    17    18 ar  
    30    17    33 1   
    31    18    19 1   
    32    19    20 1   
    33    19    23 2   
    34    20    21 1   
    35    20    34 1   
    36    21    22 2   
    37    22    23 1   
@<TRIPOS>SUBSTRUCTURE
     1 0J6         1 TEMP              0 ****  ****    0 ROOT
