@<TRIPOS>MOLECULE
0J6
   34    37     1     0     0
SMALL
abcg2


@<TRIPOS>ATOM
      1 O14          0.2870    -1.2200     0.0020 o          1 0J6      -0.571100
      2 C13          0.8180    -0.1240     0.0450 c          1 0J6       0.624700
      3 C15          2.2980     0.0240     0.1400 ca         1 0J6      -0.189600
      4 C20          3.0660    -1.0170    -0.3220 ca         1 0J6       0.027000
      5 C19          4.4640    -0.8960    -0.2540 ca         1 0J6      -0.168000
      6 C23          5.5410    -1.7010    -0.6230 cc         1 0J6      -0.175100
      7 N22          6.6270    -1.0090    -0.2860 na         1 0J6       0.020500
      8 N21          6.4030     0.1750     0.2690 nc         1 0J6      -0.280400
      9 C18          5.0740     0.2660     0.2980 ca         1 0J6      -0.056000
     10 C17          4.2690     1.3180     0.7910 ca         1 0J6      -0.081000
     11 C16          2.9150     1.1850     0.7020 ca         1 0J6      -0.089000
     12 N12          0.1240     1.0460    -0.0140 ns         1 0J6      -0.146000
     13 C8          -1.2530     1.2460    -0.1050 ca         1 0J6      -0.012000
     14 C7          -2.2030     0.2390     0.0400 ca         1 0J6      -0.087000
     15 C9          -1.6810     2.5560    -0.3440 ca         1 0J6      -0.154000
     16 C10         -3.0280     2.8500    -0.4400 ca         1 0J6      -0.081000
     17 C11         -3.9800     1.8520    -0.3030 ca         1 0J6      -0.129000
     18 C6          -3.5590     0.5480    -0.0610 ca         1 0J6      -0.116500
     19 C2          -4.5190    -0.5380     0.0930 cc         1 0J6       0.456000
     20 N3          -5.8500    -0.4460     0.0170 na         1 0J6      -0.213700
     21 N4          -6.3810    -1.6410     0.2070 nc         1 0J6      -0.207800
     22 N5          -5.4060    -2.4400     0.3940 nd         1 0J6      -0.041000
     23 N1          -4.2420    -1.8010     0.3320 nd         1 0J6      -0.377000
     24 H1           2.6070    -1.9030    -0.7400 ha         1 0J6       0.140000
     25 H2           5.5980    -2.6730    -1.0830 h4         1 0J6       0.234000
     26 H3           7.5800    -1.3150    -0.4180 hn         1 0J6       0.374000
     27 H4           4.7140     2.1990     1.2340 ha         1 0J6       0.131000
     28 H5           2.3010     1.9800     1.1060 ha         1 0J6       0.109000
     29 H6           0.6690     1.8900    -0.1010 hn         1 0J6       0.155000
     30 H7          -1.9090    -0.7790     0.2310 ha         1 0J6       0.177000
     31 H8          -0.9510     3.3490    -0.4540 ha         1 0J6       0.114000
     32 H9          -3.3380     3.8690    -0.6270 ha         1 0J6       0.118000
     33 H10         -5.0280     2.1040    -0.3900 ha         1 0J6       0.107000
     34 H11         -6.4470     0.3510    -0.1580 hn         1 0J6       0.385000
@<TRIPOS>BOND
     1     1     2 2   
     2     2     3 1   
     3     2    12 1   
     4     3     4 ar  
     5     3    11 ar  
     6     4     5 ar  
     7     4    24 1   
     8     5     6 2   
     9     5     9 ar  
    10     6     7 1   
    11     6    25 1   
    12     7     8 1   
    13     7    26 1   
    14     8     9 2   
    15     9    10 ar  
    16    10    11 ar  
    17    10    27 1   
    18    11    28 1   
    19    12    13 1   
    20    12    29 1   
    21    13    14 ar  
    22    13    15 ar  
    23    14    18 ar  
    24    14    30 1   
    25    15    16 ar  
    26    15    31 1   
    27    16    17 ar  
    28    16    32 1   
    29    17    18 ar  
    30    17    33 1   
    31    18    19 1   
    32    19    20 1   
    33    19    23 2   
    34    20    21 1   
    35    20    34 1   
    36    21    22 2   
    37    22    23 1   
@<TRIPOS>SUBSTRUCTURE
     1 0J6         1 TEMP              0 ****  ****    0 ROOT
