@<TRIPOS>MOLECULE
0J7
   39    42     1     0     0
SMALL
No Charge or Current Charge


@<TRIPOS>ATOM
      1 O26          0.1740    -0.6750     0.1800 o          1 0J7      -0.557100
      2 C13         -0.0680     0.5220     0.0780 c          1 0J7       0.620700
      3 N12          0.9230     1.4970     0.0340 ns         1 0J7      -0.148000
      4 C8           2.3440     1.4290     0.0670 ca         1 0J7      -0.015000
      5 C7           3.0760     0.2190     0.0570 ca         1 0J7      -0.082000
      6 C9           3.0450     2.6470     0.1010 ca         1 0J7      -0.151000
      7 C10          4.4470     2.6650     0.1320 ca         1 0J7      -0.082000
      8 C11          5.1670     1.4610     0.1270 ca         1 0J7      -0.127000
      9 C6           4.4910     0.2220     0.0880 ca         1 0J7      -0.116500
     10 C5           5.2350    -1.0490     0.0780 cc         1 0J7       0.454000
     11 N4           6.5930    -1.1900     0.1060 na         1 0J7      -0.212700
     12 N3           6.9370    -2.5020     0.0850 nc         1 0J7      -0.206800
     13 N2           5.7960    -3.1360     0.0460 nd         1 0J7      -0.041000
     14 N1           4.7300    -2.2660     0.0410 nd         1 0J7      -0.375000
     15 C14         -1.4980     1.0280    -0.0010 ca         1 0J7      -0.174600
     16 C19         -1.8040     2.4040    -0.1180 ca         1 0J7      -0.071000
     17 C18         -3.1380     2.8280    -0.1890 ca         1 0J7      -0.134000
     18 C17         -4.1860     1.8970    -0.1450 ca         1 0J7      -0.042000
     19 C16         -3.9270     0.5040    -0.0290 cp         1 0J7      -0.158500
     20 C15         -2.5640     0.0980     0.0420 ca         1 0J7      -0.012000
     21 C20         -5.0520    -0.5010     0.0190 cp         1 0J7       0.190500
     22 N25         -4.7280    -1.8110     0.1310 nb         1 0J7      -0.177500
     23 C24         -5.7310    -2.7100     0.1730 ca         1 0J7       0.117400
     24 C23         -7.0740    -2.3060     0.1040 ca         1 0J7      -0.221000
     25 C22         -7.3280    -0.9310    -0.0110 ca         1 0J7       0.117400
     26 N21         -6.3210    -0.0350    -0.0530 nb         1 0J7      -0.177500
     27 H1           0.5670     2.4400    -0.0360 hn         1 0J7       0.155000
     28 H2           2.5610    -0.7360     0.0210 ha         1 0J7       0.174000
     29 H3           2.5010     3.5900     0.1050 ha         1 0J7       0.115000
     30 H4           4.9780     3.6150     0.1600 ha         1 0J7       0.119000
     31 H5           6.2540     1.5040     0.1510 ha         1 0J7       0.108000
     32 H6           7.2800    -0.4480     0.1370 hn         1 0J7       0.385000
     33 H7          -1.0240     3.1610    -0.1570 ha         1 0J7       0.113000
     34 H8          -3.3640     3.8890    -0.2790 ha         1 0J7       0.121000
     35 H9          -5.2060     2.2690    -0.2030 ha         1 0J7       0.140000
     36 H10         -2.3270    -0.9600     0.1320 ha         1 0J7       0.159000
     37 H11         -5.4540    -3.7590     0.2630 h4         1 0J7       0.027600
     38 H12         -7.8840    -3.0290     0.1380 ha         1 0J7       0.138000
     39 H13         -8.3420    -0.5400    -0.0700 h4         1 0J7       0.027600
@<TRIPOS>BOND
     1     1     2 2   
     2     2     3 1   
     3     2    15 1   
     4     3     4 1   
     5     3    27 1   
     6     4     5 ar  
     7     4     6 ar  
     8     5     9 ar  
     9     5    28 1   
    10     6     7 ar  
    11     6    29 1   
    12     7     8 ar  
    13     7    30 1   
    14     8     9 ar  
    15     8    31 1   
    16     9    10 1   
    17    10    11 1   
    18    10    14 2   
    19    11    12 1   
    20    11    32 1   
    21    12    13 2   
    22    13    14 1   
    23    15    16 ar  
    24    15    20 ar  
    25    16    17 ar  
    26    16    33 1   
    27    17    18 ar  
    28    17    34 1   
    29    18    19 ar  
    30    18    35 1   
    31    19    20 ar  
    32    19    21 1   
    33    20    36 1   
    34    21    22 ar  
    35    21    26 ar  
    36    22    23 ar  
    37    23    24 ar  
    38    23    37 1   
    39    24    25 ar  
    40    24    38 1   
    41    25    26 ar  
    42    25    39 1   
@<TRIPOS>SUBSTRUCTURE
     1 0J7         1 TEMP              0 ****  ****    0 ROOT
