@<TRIPOS>MOLECULE
0J7
   39    42     1     0     0
SMALL
bcc


@<TRIPOS>ATOM
      1 O26          0.2430    -0.6680    -0.2430 o          1 0J7      -0.557100
      2 C13         -0.0410     0.5140    -0.1770 c          1 0J7       0.687700
      3 N12          0.8580     1.4940     0.1030 ns         1 0J7      -0.474100
      4 C8           2.2310     1.3740     0.3260 ca         1 0J7       0.077600
      5 C7           2.9840     0.2670    -0.0540 ca         1 0J7      -0.100000
      6 C9           2.8690     2.4550     0.9390 ca         1 0J7      -0.169000
      7 C10          4.2310     2.4280     1.1730 ca         1 0J7      -0.100000
      8 C11          4.9870     1.3260     0.8040 ca         1 0J7      -0.145000
      9 C6           4.3570     0.2510     0.1860 ca         1 0J7      -0.116500
     10 C5           5.1120    -0.9260    -0.2290 cc         1 0J7       0.454000
     11 N4           6.4420    -1.0520    -0.2520 na         1 0J7      -0.162400
     12 N3           6.7560    -2.2580    -0.6880 nc         1 0J7      -0.206800
     13 N2           5.6540    -2.8530    -0.9240 nd         1 0J7      -0.041000
     14 N1           4.6160    -2.0670    -0.6530 nd         1 0J7      -0.375000
     15 C14         -1.4400     0.9910    -0.3890 ca         1 0J7      -0.174600
     16 C19         -1.7330     2.2460    -0.9200 ca         1 0J7      -0.089000
     17 C18         -3.0530     2.6160    -1.1270 ca         1 0J7      -0.152000
     18 C17         -4.0830     1.7500    -0.8010 ca         1 0J7      -0.060000
     19 C16         -3.8030     0.4890    -0.2730 cp         1 0J7      -0.158500
     20 C15         -2.4770     0.1150    -0.0830 ca         1 0J7      -0.030000
     21 C20         -4.9000    -0.4410     0.0770 cp         1 0J7       0.716500
     22 N25         -4.5670    -1.6250     0.5800 nb         1 0J7      -0.703500
     23 C24         -5.5540    -2.4530     0.8900 ca         1 0J7       0.445700
     24 C23         -6.8840    -2.1170     0.7060 ca         1 0J7      -0.369600
     25 C22         -7.1250    -0.8600     0.1770 ca         1 0J7       0.445700
     26 N21         -6.1450    -0.0260    -0.1370 nb         1 0J7      -0.703500
     27 H1           0.4840     2.4130     0.2860 hn         1 0J7       0.321500
     28 H2           2.5250    -0.5770    -0.5410 ha         1 0J7       0.192000
     29 H3           2.2910     3.3220     1.2380 ha         1 0J7       0.133000
     30 H4           4.7060     3.2720     1.6530 ha         1 0J7       0.137000
     31 H5           6.0480     1.3190     1.0120 ha         1 0J7       0.126000
     32 H6           7.1700    -0.3920    -0.0180 hn         1 0J7       0.334700
     33 H7          -0.9450     2.9320    -1.2030 ha         1 0J7       0.131000
     34 H8          -3.2800     3.5850    -1.5520 ha         1 0J7       0.139000
     35 H9          -5.1090     2.0490    -0.9600 ha         1 0J7       0.158000
     36 H10         -2.2500    -0.8630     0.3170 ha         1 0J7       0.177000
     37 H11         -5.2720    -3.4160     1.3010 h4         1 0J7       0.027600
     38 H12         -7.6860    -2.7940     0.9610 ha         1 0J7       0.156000
     39 H13         -8.1370    -0.5130    -0.0000 h4         1 0J7       0.027600
@<TRIPOS>BOND
     1     1     2 2   
     2     2     3 1   
     3     2    15 1   
     4     3     4 1   
     5     3    27 1   
     6     4     5 ar  
     7     4     6 ar  
     8     5     9 ar  
     9     5    28 1   
    10     6     7 ar  
    11     6    29 1   
    12     7     8 ar  
    13     7    30 1   
    14     8     9 ar  
    15     8    31 1   
    16     9    10 1   
    17    10    11 1   
    18    10    14 2   
    19    11    12 1   
    20    11    32 1   
    21    12    13 2   
    22    13    14 1   
    23    15    16 ar  
    24    15    20 ar  
    25    16    17 ar  
    26    16    33 1   
    27    17    18 ar  
    28    17    34 1   
    29    18    19 ar  
    30    18    35 1   
    31    19    20 ar  
    32    19    21 1   
    33    20    36 1   
    34    21    22 ar  
    35    21    26 ar  
    36    22    23 ar  
    37    23    24 ar  
    38    23    37 1   
    39    24    25 ar  
    40    24    38 1   
    41    25    26 ar  
    42    25    39 1   
@<TRIPOS>SUBSTRUCTURE
     1 0J7         1 TEMP              0 ****  ****    0 ROOT
