@<TRIPOS>MOLECULE
0J8
   57    61     1     0     0
SMALL
abcg2


@<TRIPOS>ATOM
      1 C4           0.2240    -1.7700     1.2090 ca         1 0J8       0.090000
      2 C5           0.3900    -0.7610     0.2420 ca         1 0J8      -0.206000
      3 C6           1.7260    -0.5870    -0.2700 ca         1 0J8       0.422900
      4 N1           2.7070    -1.3540     0.1700 nb         1 0J8      -0.275000
      5 N3           1.2610    -2.5310     1.6380 nb         1 0J8      -0.136000
      6 CAP         -7.2270     0.5590    -1.5040 c6         1 0J8      -0.131400
      7 CAN         -8.7520     0.6760    -1.5300 c6         1 0J8       0.151300
      8 NAW         -9.4050     0.1430    -0.3470 n7         1 0J8      -0.844400
      9 CAO         -8.8630     0.7120     0.8740 c6         1 0J8       0.151300
     10 CAQ         -7.3430     0.5840     0.9990 c6         1 0J8      -0.131400
     11 CBG         -6.6840     1.1980    -0.2290 c6         1 0J8       0.092300
     12 NBI         -5.2310     1.1230    -0.1690 na         1 0J8       0.142800
     13 CAM         -4.4730     0.1230     0.3040 cc         1 0J8      -0.144000
     14 NAT         -4.5020     2.0980    -0.7080 nc         1 0J8      -0.516800
     15 CAJ         -3.2480     1.7210    -0.5710 cd         1 0J8       0.256900
     16 CBA         -3.1540     0.4690     0.0690 cd         1 0J8      -0.176000
     17 CAZ         -1.9560    -0.2780     0.4190 ca         1 0J8      -0.033000
     18 CAL         -0.7280    -0.0160    -0.1500 ca         1 0J8      -0.046000
     19 CAI         -2.0000    -1.3110     1.3830 ca         1 0J8       0.122900
     20 NAS         -0.9730    -2.0260     1.7600 nb         1 0J8      -0.108000
     21 C2           2.4050    -2.2650     1.0900 ca         1 0J8       0.089300
     22 CBJ          3.6000    -3.0780     1.5390 c3         1 0J8       0.280700
     23 FAD          4.5350    -2.2870     2.0780 f          1 0J8      -0.099667
     24 FAE          3.2770    -3.9960     2.4440 f          1 0J8      -0.099667
     25 FAC          4.1650    -3.7070     0.5030 f          1 0J8      -0.099667
     26 NAX          2.0140     0.3300    -1.1920 nu         1 0J8      -0.917100
     27 CAR          3.3640     0.5670    -1.6600 c3         1 0J8       0.282100
     28 CAY          4.2180     1.2560    -0.6230 ca         1 0J8      -0.127300
     29 CAK          3.9450     2.5710    -0.2720 ca         1 0J8      -0.041000
     30 CAG          5.2630     0.5890     0.0070 ca         1 0J8      -0.025000
     31 CAF          6.0360     1.2260     0.9680 ca         1 0J8      -0.120000
     32 CAH          5.7700     2.5360     1.3260 ca         1 0J8      -0.037000
     33 CBB          4.7210     3.1910     0.6950 ca         1 0J8      -0.183200
     34 NBH          4.4260     4.5690     1.0570 no         1 0J8       0.695200
     35 OAB          5.0980     5.0870     1.9170 o          1 0J8      -0.400000
     36 OAA          3.5230     5.1290     0.4820 o          1 0J8      -0.400000
     37 H2          -6.7960     1.0440    -2.3820 hc         1 0J8       0.057450
     38 H3          -9.0270     1.7320    -1.6270 h1         1 0J8       0.060700
     39 H4          -9.1480     0.1700    -2.4120 h1         1 0J8       0.060700
     40 H5          -9.2810    -0.8630    -0.3250 hn         1 0J8       0.408000
     41 H7          -9.1380     1.7720     0.9120 h1         1 0J8       0.060700
     42 H8          -9.3420     0.2360     1.7300 h1         1 0J8       0.060700
     43 H9          -6.9930     1.0790     1.9080 hc         1 0J8       0.057450
     44 H10         -7.0880    -0.4770     1.0850 hc         1 0J8       0.057450
     45 H11         -6.9120     2.2670    -0.2470 h1         1 0J8       0.090700
     46 H12         -4.9030    -0.7580     0.7520 h4         1 0J8       0.158000
     47 H13         -2.4480     2.3610    -0.9130 h4         1 0J8       0.038100
     48 H14         -0.6460     0.7570    -0.9030 ha         1 0J8       0.115000
     49 H15         -2.9430    -1.5410     1.8690 h4         1 0J8       0.024100
     50 H16          1.2920     0.9460    -1.5260 hn         1 0J8       0.505000
     51 H17          3.8220    -0.3750    -1.9570 h1         1 0J8       0.070200
     52 H18          3.2820     1.1870    -2.5510 h1         1 0J8       0.070200
     53 H19          3.1350     3.1030    -0.7520 ha         1 0J8       0.142000
     54 H20          5.4710    -0.4390    -0.2560 ha         1 0J8       0.139000
     55 H21          6.8470     0.6970     1.4470 ha         1 0J8       0.134000
     56 H22          6.3710     3.0280     2.0770 ha         1 0J8       0.153000
     57 H1          -6.9360    -0.4960    -1.5380 hc         1 0J8       0.057450
@<TRIPOS>BOND
     1     1     2 ar  
     2     1     5 ar  
     3     1    20 ar  
     4     2     3 ar  
     5     2    18 ar  
     6     3     4 ar  
     7     3    26 1   
     8     4    21 ar  
     9     5    21 ar  
    10     6     7 1   
    11     6    11 1   
    12     6    37 1   
    13     6    57 1   
    14     7     8 1   
    15     7    38 1   
    16     7    39 1   
    17     8     9 1   
    18     8    40 1   
    19     9    10 1   
    20     9    41 1   
    21     9    42 1   
    22    10    11 1   
    23    10    43 1   
    24    10    44 1   
    25    11    12 1   
    26    11    45 1   
    27    12    13 1   
    28    12    14 1   
    29    13    16 2   
    30    13    46 1   
    31    14    15 2   
    32    15    16 1   
    33    15    47 1   
    34    16    17 1   
    35    17    18 ar  
    36    17    19 ar  
    37    18    48 1   
    38    19    20 ar  
    39    19    49 1   
    40    21    22 1   
    41    22    23 1   
    42    22    24 1   
    43    22    25 1   
    44    26    27 1   
    45    26    50 1   
    46    27    28 1   
    47    27    51 1   
    48    27    52 1   
    49    28    29 ar  
    50    28    30 ar  
    51    29    33 ar  
    52    29    53 1   
    53    30    31 ar  
    54    30    54 1   
    55    31    32 ar  
    56    31    55 1   
    57    32    33 ar  
    58    32    56 1   
    59    33    34 1   
    60    34    35 1   
    61    34    36 1   
@<TRIPOS>SUBSTRUCTURE
     1 0J8         1 TEMP              0 ****  ****    0 ROOT
