@<TRIPOS>MOLECULE
0J8
   57    61     1     0     0
SMALL
No Charge or Current Charge


@<TRIPOS>ATOM
      1 C4           0.3070    -2.1240     0.7550 ca         1 0J8       0.090000
      2 C5           0.5260    -1.0290    -0.1270 ca         1 0J8      -0.206000
      3 C6           1.8480    -0.7830    -0.5660 ca         1 0J8       0.422900
      4 N1           2.8720    -1.5550    -0.1710 nb         1 0J8      -0.275000
      5 N3           1.3590    -2.8790     1.1380 nb         1 0J8      -0.136000
      6 CAP         -7.3070     0.0320    -1.0540 c6         1 0J8      -0.131400
      7 CAN         -8.8280     0.2430    -0.8790 c6         1 0J8       0.151300
      8 NAW         -9.1590     0.5290     0.5390 n7         1 0J8      -0.844400
      9 CAO         -8.4560     1.7230     1.0700 c6         1 0J8       0.151300
     10 CAQ         -6.9250     1.5540     0.9500 c6         1 0J8      -0.131400
     11 CBG         -6.5200     1.2570    -0.5190 c6         1 0J8       0.092300
     12 NBI         -5.0550     1.0650    -0.6530 na         1 0J8       0.142800
     13 CAM         -4.3230     0.0570    -0.0260 cc         1 0J8      -0.144000
     14 NAT         -4.2750     1.8950    -1.4330 nc         1 0J8      -0.516800
     15 CAJ         -3.0650     1.3940    -1.2820 cd         1 0J8       0.256900
     16 CBA         -3.0330     0.2650    -0.4300 cd         1 0J8      -0.176000
     17 CAZ         -1.8560    -0.5370    -0.0460 ca         1 0J8      -0.033000
     18 CAL         -0.5700    -0.2290    -0.5260 ca         1 0J8      -0.046000
     19 CAI         -1.9780    -1.6400     0.8190 ca         1 0J8       0.122900
     20 NAS         -0.9360    -2.4030     1.2030 nb         1 0J8      -0.108000
     21 C2           2.5890    -2.5680     0.6720 ca         1 0J8       0.089300
     22 CBJ          3.7630    -3.4520     1.1210 c3         1 0J8       0.280700
     23 FAD          4.8820    -2.7300     1.3700 f          1 0J8      -0.099667
     24 FAE          3.4960    -4.1470     2.2530 f          1 0J8      -0.099667
     25 FAC          4.0880    -4.3610     0.1720 f          1 0J8      -0.099667
     26 NAX          2.1670     0.2660    -1.4280 nu         1 0J8      -0.917100
     27 CAR          3.5060     0.8250    -1.6890 c3         1 0J8       0.282100
     28 CAY          4.0740     1.4610    -0.4250 ca         1 0J8      -0.127300
     29 CAK          3.5380     2.6700     0.0630 ca         1 0J8      -0.041000
     30 CAG          5.1340     0.8420     0.2660 ca         1 0J8      -0.025000
     31 CAF          5.6500     1.4250     1.4340 ca         1 0J8      -0.120000
     32 CAH          5.1170     2.6300     1.9220 ca         1 0J8      -0.037000
     33 CBB          4.0530     3.2650     1.2390 ca         1 0J8      -0.183200
     34 NBH          3.4780     4.5490     1.7570 no         1 0J8       0.695200
     35 OAB          3.9580     5.0300     2.7920 o          1 0J8      -0.400000
     36 OAA          2.5500     5.0710     1.1260 o          1 0J8      -0.400000
     37 H2          -7.0770    -0.1270    -2.1160 hc         1 0J8       0.057450
     38 H3          -9.1600     1.0800    -1.5130 h1         1 0J8       0.060700
     39 H4          -9.3680    -0.6570    -1.2130 h1         1 0J8       0.060700
     40 H5          -8.8900    -0.2850     1.1060 hn         1 0J8       0.408000
     41 H7          -8.7730     2.6180     0.5120 h1         1 0J8       0.060700
     42 H8          -8.7300     1.8790     2.1240 h1         1 0J8       0.060700
     43 H9          -6.4240     2.4680     1.2990 hc         1 0J8       0.057450
     44 H10         -6.5930     0.7420     1.6110 hc         1 0J8       0.057450
     45 H11         -6.7950     2.1300    -1.1290 h1         1 0J8       0.090700
     46 H12         -4.7730    -0.6840     0.6230 h4         1 0J8       0.158000
     47 H13         -2.2390     1.8660    -1.7990 h4         1 0J8       0.038100
     48 H14         -0.4350     0.6160    -1.1940 ha         1 0J8       0.115000
     49 H15         -2.9440    -1.9320     1.2250 h4         1 0J8       0.024100
     50 H16          1.3760     0.8060    -1.7690 hn         1 0J8       0.505000
     51 H17          4.1840     0.0410    -2.0530 h1         1 0J8       0.070200
     52 H18          3.4490     1.5910    -2.4760 h1         1 0J8       0.070200
     53 H19          2.7160     3.1370    -0.4780 ha         1 0J8       0.142000
     54 H20          5.5530    -0.0940    -0.0980 ha         1 0J8       0.139000
     55 H21          6.4670     0.9400     1.9640 ha         1 0J8       0.134000
     56 H22          5.5360     3.0610     2.8300 ha         1 0J8       0.153000
     57 H1          -7.0010    -0.8810    -0.5260 hc         1 0J8       0.057450
@<TRIPOS>BOND
     1     1     2 ar  
     2     1     5 ar  
     3     1    20 ar  
     4     2     3 ar  
     5     2    18 ar  
     6     3     4 ar  
     7     3    26 1   
     8     4    21 ar  
     9     5    21 ar  
    10     6     7 1   
    11     6    11 1   
    12     6    37 1   
    13     6    57 1   
    14     7     8 1   
    15     7    38 1   
    16     7    39 1   
    17     8     9 1   
    18     8    40 1   
    19     9    10 1   
    20     9    41 1   
    21     9    42 1   
    22    10    11 1   
    23    10    43 1   
    24    10    44 1   
    25    11    12 1   
    26    11    45 1   
    27    12    13 1   
    28    12    14 1   
    29    13    16 2   
    30    13    46 1   
    31    14    15 2   
    32    15    16 1   
    33    15    47 1   
    34    16    17 1   
    35    17    18 ar  
    36    17    19 ar  
    37    18    48 1   
    38    19    20 ar  
    39    19    49 1   
    40    21    22 1   
    41    22    23 1   
    42    22    24 1   
    43    22    25 1   
    44    26    27 1   
    45    26    50 1   
    46    27    28 1   
    47    27    51 1   
    48    27    52 1   
    49    28    29 ar  
    50    28    30 ar  
    51    29    33 ar  
    52    29    53 1   
    53    30    31 ar  
    54    30    54 1   
    55    31    32 ar  
    56    31    55 1   
    57    32    33 ar  
    58    32    56 1   
    59    33    34 1   
    60    34    35 1   
    61    34    36 1   
@<TRIPOS>SUBSTRUCTURE
     1 0J8         1 TEMP              0 ****  ****    0 ROOT
