@<TRIPOS>MOLECULE
0J9
   43    46     1     0     0
SMALL
abcg2


@<TRIPOS>ATOM
      1 N1          -2.1850    -3.0190     0.9710 nb         1 0J9      -0.314000
      2 C2          -3.2810    -2.2640     0.9090 ca         1 0J9       0.193900
      3 N3          -3.3980    -1.0110     0.5240 nb         1 0J9      -0.235000
      4 C4          -2.2290    -0.4840     0.1350 ca         1 0J9       0.158500
      5 C5          -1.0050    -1.1560     0.1210 ca         1 0J9      -0.385900
      6 C6          -1.0200    -2.4890     0.5940 ca         1 0J9       0.458900
      7 CAA         -3.5140     2.2050     0.9610 c3         1 0J9      -0.100767
      8 CAB         -4.0640     1.4780    -1.3890 c3         1 0J9      -0.100767
      9 CAC         -2.2330     3.1140    -0.9720 c3         1 0J9      -0.100767
     10 NAD          0.0740    -3.2450     0.6840 nv         1 0J9      -1.068900
     11 CAE          4.3270     2.0130     1.2920 ca         1 0J9      -0.103000
     12 CAF          2.9640     2.2300     1.5780 ca         1 0J9      -0.110000
     13 CAI          1.7780    -1.3610    -1.4490 ca         1 0J9      -0.108000
     14 CAJ          4.6910     1.0300     0.4130 ca         1 0J9      -0.103000
     15 CAK          4.0900    -0.8040    -1.1130 ca         1 0J9      -0.092000
     16 CAL          1.9950     1.4730     0.9750 ca         1 0J9      -0.087000
     17 NAO         -0.6900     0.9370    -0.5860 nc         1 0J9      -0.512100
     18 CAQ          1.3670    -0.3680    -0.5910 ca         1 0J9      -0.083900
     19 CAR         -0.0740    -0.1960    -0.3500 cd         1 0J9       0.423500
     20 CAS          3.7150     0.2260    -0.2200 ca         1 0J9      -0.040000
     21 CAT          2.3380     0.4540     0.0540 ca         1 0J9      -0.015000
     22 NAW         -1.9890     0.7720    -0.2990 na         1 0J9      -0.020100
     23 CAX         -2.9510     1.8870    -0.4240 c3         1 0J9       0.135000
     24 CAG          3.1430    -1.5850    -1.7120 ca         1 0J9      -0.115000
     25 H1          -4.1970    -2.7520     1.2260 h5         1 0J9       0.044100
     26 H2          -2.7150     2.4930     1.6460 hc         1 0J9       0.050589
     27 H3          -4.2130     3.0390     0.8890 hc         1 0J9       0.050589
     28 H4          -4.0470     1.3560     1.3870 hc         1 0J9       0.050589
     29 H5          -4.7820     2.2930    -1.4870 hc         1 0J9       0.050589
     30 H6          -3.6600     1.2640    -2.3800 hc         1 0J9       0.050589
     31 H7          -4.6010     0.5990    -1.0370 hc         1 0J9       0.050589
     32 H8          -1.4270     3.4470    -0.3190 hc         1 0J9       0.050589
     33 H9          -1.8190     2.9390    -1.9650 hc         1 0J9       0.050589
     34 H10         -2.9600     3.9240    -1.0490 hc         1 0J9       0.050589
     35 H11          0.0110    -4.1610     1.0940 hn         1 0J9       0.504000
     36 H12          0.9910    -2.8750     0.5020 hn         1 0J9       0.504000
     37 H13          5.0800     2.6230     1.7720 ha         1 0J9       0.114000
     38 H14          2.6820     3.0030     2.2810 ha         1 0J9       0.114000
     39 H15          1.0400    -1.9740    -1.9530 ha         1 0J9       0.122000
     40 H16          5.7370     0.8520     0.1920 ha         1 0J9       0.113000
     41 H17          5.1430    -0.9670    -1.3120 ha         1 0J9       0.115000
     42 H18          0.9560     1.6610     1.2020 ha         1 0J9       0.127000
     43 H19          3.4310    -2.3730    -2.3950 ha         1 0J9       0.117000
@<TRIPOS>BOND
     1     1     2 ar  
     2     1     6 ar  
     3     2     3 ar  
     4     2    25 1   
     5     3     4 ar  
     6     4     5 ar  
     7     4    22 1   
     8     5     6 ar  
     9     5    19 1   
    10     6    10 1   
    11     7    23 1   
    12     7    26 1   
    13     7    27 1   
    14     7    28 1   
    15     8    23 1   
    16     8    29 1   
    17     8    30 1   
    18     8    31 1   
    19     9    23 1   
    20     9    32 1   
    21     9    33 1   
    22     9    34 1   
    23    10    35 1   
    24    10    36 1   
    25    11    12 ar  
    26    11    14 ar  
    27    11    37 1   
    28    12    16 ar  
    29    12    38 1   
    30    13    18 ar  
    31    13    24 ar  
    32    13    39 1   
    33    14    20 ar  
    34    14    40 1   
    35    15    20 ar  
    36    15    24 ar  
    37    15    41 1   
    38    16    21 ar  
    39    16    42 1   
    40    17    19 2   
    41    17    22 1   
    42    18    19 1   
    43    18    21 ar  
    44    20    21 ar  
    45    22    23 1   
    46    24    43 1   
@<TRIPOS>SUBSTRUCTURE
     1 0J9         1 TEMP              0 ****  ****    0 ROOT
