@<TRIPOS>MOLECULE
0J9
   43    46     1     0     0
SMALL
No Charge or Current Charge


@<TRIPOS>ATOM
      1 N1          -1.9230    -2.9750     1.1260 nb         1 0J9      -0.314000
      2 C2          -3.1000    -2.3040     1.1020 ca         1 0J9       0.193900
      3 N3          -3.3010    -1.0420     0.6510 nb         1 0J9      -0.235000
      4 C4          -2.2120    -0.4050     0.1730 ca         1 0J9       0.158500
      5 C5          -0.9950    -1.0250     0.1540 ca         1 0J9      -0.385900
      6 C6          -0.8610    -2.3170     0.6450 ca         1 0J9       0.458900
      7 CAA         -3.6830     2.2760     0.8750 c3         1 0J9      -0.100767
      8 CAB         -4.1880     1.4020    -1.4550 c3         1 0J9      -0.100767
      9 CAC         -2.4940     3.2260    -1.1230 c3         1 0J9      -0.100767
     10 NAD          0.3130    -2.9800     0.6870 nv         1 0J9      -1.068900
     11 CAE          4.4420     1.7040     1.4920 ca         1 0J9      -0.103000
     12 CAF          3.0970     1.9740     1.7870 ca         1 0J9      -0.110000
     13 CAI          1.7330    -1.2730    -1.6070 ca         1 0J9      -0.108000
     14 CAJ          4.7650     0.7630     0.5030 ca         1 0J9      -0.103000
     15 CAK          4.0880    -0.8570    -1.1800 ca         1 0J9      -0.092000
     16 CAL          2.0730     1.3090     1.0910 ca         1 0J9      -0.087000
     17 NAO         -0.6620     1.0780    -0.6970 nc         1 0J9      -0.512100
     18 CAQ          1.3700    -0.3230    -0.6300 ca         1 0J9      -0.083900
     19 CAR         -0.0620    -0.0760    -0.3900 cd         1 0J9       0.423500
     20 CAS          3.7460     0.0910    -0.1990 ca         1 0J9      -0.040000
     21 CAT          2.3840     0.3650     0.0850 ca         1 0J9      -0.015000
     22 NAW         -2.0060     0.8760    -0.3460 na         1 0J9      -0.020100
     23 CAX         -3.0730     1.9190    -0.5070 c3         1 0J9       0.135000
     24 CAG          3.0830    -1.5390    -1.8810 ca         1 0J9      -0.115000
     25 H1          -3.9710    -2.8290     1.4890 h5         1 0J9       0.044100
     26 H2          -2.9020     2.6110     1.5680 hc         1 0J9       0.050589
     27 H3          -4.4210     3.0820     0.7800 hc         1 0J9       0.050589
     28 H4          -4.1910     1.4170     1.3270 hc         1 0J9       0.050589
     29 H5          -4.9430     2.1780    -1.6310 hc         1 0J9       0.050589
     30 H6          -3.7680     1.1110    -2.4250 hc         1 0J9       0.050589
     31 H7          -4.7050     0.5310    -1.0360 hc         1 0J9       0.050589
     32 H8          -1.7120     3.6510    -0.4830 hc         1 0J9       0.050589
     33 H9          -2.0620     3.0370    -2.1130 hc         1 0J9       0.050589
     34 H10         -3.2770     3.9850    -1.2400 hc         1 0J9       0.050589
     35 H11          0.3710    -3.8180     1.2600 hn         1 0J9       0.504000
     36 H12          1.1730    -2.4670     0.5230 hn         1 0J9       0.504000
     37 H13          5.2320     2.2200     2.0330 ha         1 0J9       0.114000
     38 H14          2.8460     2.7000     2.5570 ha         1 0J9       0.114000
     39 H15          0.9600    -1.8020    -2.1600 ha         1 0J9       0.122000
     40 H16          5.8100     0.5540     0.2830 ha         1 0J9       0.113000
     41 H17          5.1320    -1.0680    -1.3980 ha         1 0J9       0.115000
     42 H18          1.0420     1.5370     1.3480 ha         1 0J9       0.127000
     43 H19          3.3500    -2.2720    -2.6390 ha         1 0J9       0.117000
@<TRIPOS>BOND
     1     1     2 ar  
     2     1     6 ar  
     3     2     3 ar  
     4     2    25 1   
     5     3     4 ar  
     6     4     5 ar  
     7     4    22 1   
     8     5     6 ar  
     9     5    19 1   
    10     6    10 1   
    11     7    23 1   
    12     7    26 1   
    13     7    27 1   
    14     7    28 1   
    15     8    23 1   
    16     8    29 1   
    17     8    30 1   
    18     8    31 1   
    19     9    23 1   
    20     9    32 1   
    21     9    33 1   
    22     9    34 1   
    23    10    35 1   
    24    10    36 1   
    25    11    12 ar  
    26    11    14 ar  
    27    11    37 1   
    28    12    16 ar  
    29    12    38 1   
    30    13    18 ar  
    31    13    24 ar  
    32    13    39 1   
    33    14    20 ar  
    34    14    40 1   
    35    15    20 ar  
    36    15    24 ar  
    37    15    41 1   
    38    16    21 ar  
    39    16    42 1   
    40    17    19 2   
    41    17    22 1   
    42    18    19 1   
    43    18    21 ar  
    44    20    21 ar  
    45    22    23 1   
    46    24    43 1   
@<TRIPOS>SUBSTRUCTURE
     1 0J9         1 TEMP              0 ****  ****    0 ROOT
