@<TRIPOS>MOLECULE
0JB
   34    37     1     0     0
SMALL
No Charge or Current Charge


@<TRIPOS>ATOM
      1 O14          0.7490    -1.0400    -0.1730 o          1 0JB      -0.596100
      2 C13          1.1940     0.0970    -0.0510 c          1 0JB       0.633700
      3 C15          2.6910     0.3570     0.0320 ca         1 0JB      -0.164600
      4 C20          3.6310    -0.6950    -0.0270 ca         1 0JB      -0.035200
      5 N21          3.4450    -2.0390    -0.1570 na         1 0JB      -0.297600
      6 C22          4.7000    -2.6410    -0.1630 cc         1 0JB       0.422700
      7 N23          5.6750    -1.7150    -0.0400 nd         1 0JB      -0.573100
      8 C19          4.9840    -0.5080     0.0430 ca         1 0JB       0.052400
      9 C18          5.5220     0.7770     0.1820 ca         1 0JB      -0.013000
     10 C17          4.6320     1.8680     0.2460 ca         1 0JB      -0.152000
     11 C16          3.2330     1.6650     0.1730 ca         1 0JB      -0.062000
     12 N12          0.3850     1.2250     0.0170 ns         1 0JB      -0.139000
     13 C8          -1.0270     1.4040    -0.0120 ca         1 0JB      -0.017000
     14 C7          -1.9560     0.3380    -0.0460 ca         1 0JB      -0.084000
     15 C9          -1.5080     2.7250     0.0010 ca         1 0JB      -0.150000
     16 C10         -2.8860     2.9840    -0.0240 ca         1 0JB      -0.081000
     17 C11         -3.8020     1.9230    -0.0610 ca         1 0JB      -0.125000
     18 C6          -3.3490     0.5850    -0.0720 ca         1 0JB      -0.115500
     19 C2          -4.3000    -0.5380    -0.1070 cc         1 0JB       0.455000
     20 N3          -5.6620    -0.4430    -0.1340 na         1 0JB      -0.211700
     21 N4          -6.2260    -1.6770    -0.1630 nc         1 0JB      -0.205800
     22 N5          -5.2120    -2.4980    -0.1520 nd         1 0JB      -0.040000
     23 N1          -4.0120    -1.8250    -0.1180 nd         1 0JB      -0.379000
     24 H1           2.5570    -2.5190    -0.2360 hn         1 0JB       0.385000
     25 H2           4.8330    -3.7120    -0.2550 h5         1 0JB       0.067800
     26 H4           6.5980     0.9260     0.2380 ha         1 0JB       0.134000
     27 H5           5.0250     2.8760     0.3540 ha         1 0JB       0.120000
     28 H6           2.5890     2.5400     0.2280 ha         1 0JB       0.107000
     29 H7           0.8980     2.0910     0.1050 hn         1 0JB       0.157000
     30 H8          -1.6120    -0.6920    -0.0490 ha         1 0JB       0.175000
     31 H9          -0.8100     3.5590     0.0300 ha         1 0JB       0.116000
     32 H10         -3.2450     4.0110    -0.0140 ha         1 0JB       0.120000
     33 H11         -4.8650     2.1530    -0.0790 ha         1 0JB       0.109000
     34 H12         -6.2120     0.4060    -0.1350 hn         1 0JB       0.386000
@<TRIPOS>BOND
     1     1     2 2   
     2     2     3 1   
     3     2    12 1   
     4     3     4 ar  
     5     3    11 ar  
     6     4     5 1   
     7     4     8 ar  
     8     5     6 1   
     9     5    24 1   
    10     6     7 2   
    11     6    25 1   
    12     7     8 1   
    13     8     9 ar  
    14     9    10 ar  
    15     9    26 1   
    16    10    11 ar  
    17    10    27 1   
    18    11    28 1   
    19    12    13 1   
    20    12    29 1   
    21    13    14 ar  
    22    13    15 ar  
    23    14    18 ar  
    24    14    30 1   
    25    15    16 ar  
    26    15    31 1   
    27    16    17 ar  
    28    16    32 1   
    29    17    18 ar  
    30    17    33 1   
    31    18    19 1   
    32    19    20 1   
    33    19    23 2   
    34    20    21 1   
    35    20    34 1   
    36    21    22 2   
    37    22    23 1   
@<TRIPOS>SUBSTRUCTURE
     1 0JB         1 TEMP              0 ****  ****    0 ROOT
