@<TRIPOS>MOLECULE
0JB
   34    37     1     0     0
SMALL
abcg2


@<TRIPOS>ATOM
      1 O14          0.6830    -0.9380     0.0040 o          1 0JB      -0.596100
      2 C13          1.1460     0.1900     0.0750 c          1 0JB       0.633700
      3 C15          2.6090     0.4020     0.2120 ca         1 0JB      -0.164600
      4 C20          3.4810    -0.6490    -0.0940 ca         1 0JB      -0.035200
      5 N21          3.2860    -1.9230    -0.5400 na         1 0JB      -0.297600
      6 C22          4.5090    -2.4880    -0.6890 cc         1 0JB       0.422700
      7 N23          5.4900    -1.6900    -0.3810 nd         1 0JB      -0.573100
      8 C19          4.8800    -0.5190     0.0010 ca         1 0JB       0.052400
      9 C18          5.4430     0.6770     0.4370 ca         1 0JB      -0.013000
     10 C17          4.5890     1.7130     0.7690 ca         1 0JB      -0.152000
     11 C16          3.2020     1.5790     0.6570 ca         1 0JB      -0.062000
     12 N12          0.3920     1.3170     0.0160 ns         1 0JB      -0.139000
     13 C8          -0.9930     1.4350    -0.1100 ca         1 0JB      -0.017000
     14 C7          -1.8870     0.3830     0.0610 ca         1 0JB      -0.084000
     15 C9          -1.4880     2.7080    -0.4100 ca         1 0JB      -0.150000
     16 C10         -2.8480     2.9210    -0.5400 ca         1 0JB      -0.081000
     17 C11         -3.7440     1.8760    -0.3790 ca         1 0JB      -0.125000
     18 C6          -3.2560     0.6090    -0.0760 ca         1 0JB      -0.115500
     19 C2          -4.1570    -0.5230     0.1070 cc         1 0JB       0.455000
     20 N3          -5.4900    -0.5050     0.0220 na         1 0JB      -0.211700
     21 N4          -5.9560    -1.7200     0.2480 nc         1 0JB      -0.205800
     22 N5          -4.9410    -2.4600     0.4650 nd         1 0JB      -0.040000
     23 N1          -3.8130    -1.7610     0.3870 nd         1 0JB      -0.379000
     24 H1           2.3970    -2.3680    -0.7030 hn         1 0JB       0.385000
     25 H2           4.6150    -3.5060    -1.0320 h5         1 0JB       0.067800
     26 H4           6.5160     0.7870     0.5180 ha         1 0JB       0.134000
     27 H5           4.9950     2.6500     1.1260 ha         1 0JB       0.120000
     28 H6           2.5930     2.4220     0.9570 ha         1 0JB       0.107000
     29 H7           0.8890     2.1920    -0.0450 hn         1 0JB       0.157000
     30 H8          -1.5410    -0.6080     0.3030 ha         1 0JB       0.175000
     31 H9          -0.8010     3.5350    -0.5420 ha         1 0JB       0.116000
     32 H10         -3.2120     3.9120    -0.7750 ha         1 0JB       0.120000
     33 H11         -4.8030     2.0650    -0.4920 ha         1 0JB       0.109000
     34 H12         -6.1280     0.2530    -0.1770 hn         1 0JB       0.386000
@<TRIPOS>BOND
     1     1     2 2   
     2     2     3 1   
     3     2    12 1   
     4     3     4 ar  
     5     3    11 ar  
     6     4     5 1   
     7     4     8 ar  
     8     5     6 1   
     9     5    24 1   
    10     6     7 2   
    11     6    25 1   
    12     7     8 1   
    13     8     9 ar  
    14     9    10 ar  
    15     9    26 1   
    16    10    11 ar  
    17    10    27 1   
    18    11    28 1   
    19    12    13 1   
    20    12    29 1   
    21    13    14 ar  
    22    13    15 ar  
    23    14    18 ar  
    24    14    30 1   
    25    15    16 ar  
    26    15    31 1   
    27    16    17 ar  
    28    16    32 1   
    29    17    18 ar  
    30    17    33 1   
    31    18    19 1   
    32    19    20 1   
    33    19    23 2   
    34    20    21 1   
    35    20    34 1   
    36    21    22 2   
    37    22    23 1   
@<TRIPOS>SUBSTRUCTURE
     1 0JB         1 TEMP              0 ****  ****    0 ROOT
