@<TRIPOS>MOLECULE
0JD
   20    21     1     0     0
SMALL
bcc


@<TRIPOS>ATOM
      1 OAA         -3.5970    -0.5500    -0.3410 o          1 0JD      -0.809300
      2 CAJ         -2.7490     0.3290    -0.0950 c          1 0JD       0.944600
      3 OAB         -2.9330     1.4770     0.3320 o          1 0JD      -0.809300
      4 CAM         -1.2980    -0.1100    -0.3800 c6         1 0JD      -0.044900
      5 OAI         -0.3930     0.9280    -0.0320 os         1 0JD      -0.266900
      6 CAL          0.9070     0.5590    -0.0080 ca         1 0JD       0.083100
      7 CAF          1.8830     1.5490    -0.0450 ca         1 0JD      -0.148000
      8 CAD          3.2290     1.2130    -0.0270 ca         1 0JD      -0.145000
      9 CAC          3.6100    -0.1220     0.0160 ca         1 0JD      -0.161000
     10 CAE          2.6430    -1.1150     0.0600 ca         1 0JD      -0.144000
     11 CAK          1.2930    -0.7850     0.0520 ca         1 0JD       0.058100
     12 OAH          0.3820    -1.7840     0.0980 os         1 0JD      -0.335900
     13 CAG         -0.9440    -1.3650     0.3930 c6         1 0JD       0.107400
     14 H2          -1.2030    -0.3220    -1.4550 h1         1 0JD       0.043700
     15 H3           1.5740     2.5860    -0.0900 ha         1 0JD       0.139000
     16 H4           3.9760     1.9950    -0.0580 ha         1 0JD       0.113000
     17 H5           4.6580    -0.3930     0.0240 ha         1 0JD       0.112000
     18 H6           2.9250    -2.1610     0.1040 ha         1 0JD       0.126000
     19 H7          -1.0470    -1.1890     1.4710 h1         1 0JD       0.068700
     20 H8          -1.6030    -2.1820     0.1110 h1         1 0JD       0.068700
@<TRIPOS>BOND
     1     1     2 1   
     2     2     3 1   
     3     2     4 1   
     4     4     5 1   
     5     4    13 1   
     6     4    14 1   
     7     5     6 1   
     8     6     7 ar  
     9     6    11 ar  
    10     7     8 ar  
    11     7    15 1   
    12     8     9 ar  
    13     8    16 1   
    14     9    10 ar  
    15     9    17 1   
    16    10    11 ar  
    17    10    18 1   
    18    11    12 1   
    19    12    13 1   
    20    13    19 1   
    21    13    20 1   
@<TRIPOS>SUBSTRUCTURE
     1 0JD         1 TEMP              0 ****  ****    0 ROOT
