@<TRIPOS>MOLECULE
0JD
   20    21     1     0     0
SMALL
No Charge or Current Charge


@<TRIPOS>ATOM
      1 OAA         -3.6310    -0.0070    -0.9480 o          1 0JD      -0.704000
      2 CAJ         -2.8410     0.2270    -0.0420 c          1 0JD       0.734000
      3 OAB         -3.0230     1.1990     0.6820 o          1 0JD      -0.704000
      4 CAM         -1.3630    -0.1670    -0.3370 c6         1 0JD      -0.021700
      5 OAI         -0.4070     0.9010    -0.0820 os         1 0JD      -0.290100
      6 CAL          0.9310     0.5640    -0.0370 ca         1 0JD       0.083100
      7 CAF          1.9010     1.5780    -0.0990 ca         1 0JD      -0.130000
      8 CAD          3.2680     1.2440    -0.0770 ca         1 0JD      -0.127000
      9 CAC          3.6650    -0.1030     0.0070 ca         1 0JD      -0.143000
     10 CAE          2.6970    -1.1210     0.0800 ca         1 0JD      -0.126000
     11 CAK          1.3310    -0.7930     0.0700 ca         1 0JD       0.058100
     12 OAH          0.3910    -1.8000     0.1640 os         1 0JD      -0.359100
     13 CAG         -0.9670    -1.4170     0.4770 c6         1 0JD       0.130600
     14 H2          -1.3020    -0.4240    -1.4040 h1         1 0JD       0.043700
     15 H3           1.5950     2.6180    -0.1730 ha         1 0JD       0.121000
     16 H4           4.0190     2.0290    -0.1300 ha         1 0JD       0.095000
     17 H5           4.7220    -0.3570     0.0210 ha         1 0JD       0.094000
     18 H6           3.0050    -2.1610     0.1540 ha         1 0JD       0.108000
     19 H7          -1.0380    -1.1960     1.5520 h1         1 0JD       0.068700
     20 H8          -1.6400    -2.2570     0.2530 h1         1 0JD       0.068700
@<TRIPOS>BOND
     1     1     2 1   
     2     2     3 1   
     3     2     4 1   
     4     4     5 1   
     5     4    13 1   
     6     4    14 1   
     7     5     6 1   
     8     6     7 ar  
     9     6    11 ar  
    10     7     8 ar  
    11     7    15 1   
    12     8     9 ar  
    13     8    16 1   
    14     9    10 ar  
    15     9    17 1   
    16    10    11 ar  
    17    10    18 1   
    18    11    12 1   
    19    12    13 1   
    20    13    19 1   
    21    13    20 1   
@<TRIPOS>SUBSTRUCTURE
     1 0JD         1 TEMP              0 ****  ****    0 ROOT
