@<TRIPOS>MOLECULE
0JE
   47    49     1     0     0
SMALL
bcc


@<TRIPOS>ATOM
      1 CAZ          5.2520     3.9190     0.0250 c3         1 0JE      -0.094100
      2 CAY          4.0860     2.9620     0.0520 c3         1 0JE       0.140400
      3 OAX          4.5920     1.6360    -0.0410 os         1 0JE      -0.307900
      4 CAB          3.7080     0.6240    -0.0490 ca         1 0JE       0.102100
      5 CAC          2.3330     0.7580     0.0380 ca         1 0JE      -0.158000
      6 CAA          4.2690    -0.6680    -0.1570 ca         1 0JE       0.125900
      7 FAW          5.6060    -0.7490    -0.2430 f          1 0JE      -0.127900
      8 CAD          3.5290    -1.8230    -0.1810 ca         1 0JE      -0.141000
      9 CAH          2.1500    -1.6630    -0.0930 ca         1 0JE      -0.096200
     10 NAG          1.1090    -2.5540    -0.0910 na         1 0JE      -0.252300
     11 CAI          1.5540    -0.4020     0.0110 ca         1 0JE       0.108400
     12 NAE          0.1940    -0.5370     0.0730 nc         1 0JE      -0.621100
     13 CAF         -0.0350    -1.8300     0.0070 cd         1 0JE       0.523400
     14 CAJ         -1.3680    -2.3660     0.0230 cd         1 0JE      -0.237200
     15 NAK         -1.7210    -3.6740     0.0070 na         1 0JE      -0.001600
     16 NAL         -3.0240    -3.8500     0.0160 nd         1 0JE      -0.485800
     17 CAM         -3.5620    -2.6400     0.0390 cc         1 0JE       0.294200
     18 CAN         -2.5590    -1.6510     0.0460 cc         1 0JE      -0.009700
     19 NAO         -2.6100    -0.2720     0.0790 ns         1 0JE      -0.466100
     20 CAP         -3.7540     0.4690    -0.0640 c          1 0JE       0.802100
     21 OAR         -4.8460    -0.0640    -0.2250 o          1 0JE      -0.638100
     22 NAQ         -3.5890     1.8150    -0.0130 n          1 0JE      -0.495800
     23 CAU         -4.7420     2.6720    -0.2390 c3         1 0JE       0.109000
     24 CAV         -5.4660     3.0420     1.0460 c3         1 0JE      -0.114600
     25 CAS         -2.3260     2.4760     0.2750 c3         1 0JE       0.109000
     26 CAT         -1.4660     2.7130    -0.9580 c3         1 0JE      -0.114600
     27 H1           5.9260     3.7530     0.8650 hc         1 0JE       0.049367
     28 H2           5.8200     3.8330    -0.9010 hc         1 0JE       0.049367
     29 H3           4.8780     4.9400     0.0930 hc         1 0JE       0.049367
     30 H4           3.5150     3.0790     0.9790 h1         1 0JE       0.034700
     31 H5           3.4050     3.1620    -0.7820 h1         1 0JE       0.034700
     32 H6           1.8530     1.7230     0.1260 ha         1 0JE       0.152000
     33 H7           4.0060    -2.7900    -0.2670 ha         1 0JE       0.157000
     34 H8           1.1920    -3.5560    -0.1580 hn         1 0JE       0.307700
     35 H10         -1.1150    -4.4790    -0.0070 hn         1 0JE       0.319700
     36 H11         -4.6300    -2.5190     0.0500 h4         1 0JE       0.071100
     37 H12         -1.6910     0.1600     0.1030 hn         1 0JE       0.364500
     38 H13         -4.3870     3.5730    -0.7440 h1         1 0JE       0.051950
     39 H14         -5.4270     2.1830    -0.9290 h1         1 0JE       0.051950
     40 H15         -5.8650     2.1560     1.5380 hc         1 0JE       0.042033
     41 H16         -4.8000     3.5500     1.7460 hc         1 0JE       0.042033
     42 H17         -6.2970     3.7150     0.8320 hc         1 0JE       0.042033
     43 H18         -2.5630     3.4320     0.7450 h1         1 0JE       0.051950
     44 H19         -1.7680     1.9220     1.0330 h1         1 0JE       0.051950
     45 H20         -2.0080     3.2900    -1.7080 hc         1 0JE       0.042033
     46 H21         -0.5700     3.2730    -0.6890 hc         1 0JE       0.042033
     47 H22         -1.1460     1.7770    -1.4160 hc         1 0JE       0.042033
@<TRIPOS>BOND
     1     1     2 1   
     2     1    27 1   
     3     1    28 1   
     4     1    29 1   
     5     2     3 1   
     6     2    30 1   
     7     2    31 1   
     8     3     4 1   
     9     4     5 ar  
    10     4     6 ar  
    11     5    11 ar  
    12     5    32 1   
    13     6     7 1   
    14     6     8 ar  
    15     8     9 ar  
    16     8    33 1   
    17     9    10 1   
    18     9    11 ar  
    19    10    13 1   
    20    10    34 1   
    21    11    12 1   
    22    12    13 2   
    23    13    14 1   
    24    14    15 1   
    25    14    18 2   
    26    15    16 1   
    27    15    35 1   
    28    16    17 2   
    29    17    18 1   
    30    17    36 1   
    31    18    19 1   
    32    19    20 1   
    33    19    37 1   
    34    20    21 2   
    35    20    22 1   
    36    22    23 1   
    37    22    25 1   
    38    23    24 1   
    39    23    38 1   
    40    23    39 1   
    41    24    40 1   
    42    24    41 1   
    43    24    42 1   
    44    25    26 1   
    45    25    43 1   
    46    25    44 1   
    47    26    45 1   
    48    26    46 1   
    49    26    47 1   
@<TRIPOS>SUBSTRUCTURE
     1 0JE         1 TEMP              0 ****  ****    0 ROOT
