@<TRIPOS>MOLECULE
0JE
   47    49     1     0     0
SMALL
No Charge or Current Charge


@<TRIPOS>ATOM
      1 CAZ          5.3140     3.9960     0.0610 c3         1 0JE      -0.094100
      2 CAY          4.0970     3.0580     0.0460 c3         1 0JE       0.163600
      3 OAX          4.5900     1.7080     0.0350 os         1 0JE      -0.331100
      4 CAB          3.7450     0.6120     0.0180 ca         1 0JE       0.102100
      5 CAC          2.3320     0.7540     0.0140 ca         1 0JE      -0.140000
      6 CAA          4.3170    -0.6890     0.0060 ca         1 0JE       0.161000
      7 FAW          5.6620    -0.8410     0.0100 f          1 0JE      -0.163000
      8 CAD          3.4990    -1.8360    -0.0110 ca         1 0JE      -0.123000
      9 CAH          2.1120    -1.6440    -0.0160 ca         1 0JE      -0.096200
     10 NAG          1.1160    -2.5810    -0.0330 na         1 0JE      -0.302600
     11 CAI          1.5430    -0.4030    -0.0030 ca         1 0JE       0.108400
     12 NAE          0.1650    -0.4770    -0.0120 nc         1 0JE      -0.621100
     13 CAF         -0.0500    -1.8070    -0.0310 cd         1 0JE       0.523400
     14 CAJ         -1.3620    -2.4060    -0.0520 cd         1 0JE      -0.287900
     15 NAK         -1.6730    -3.7750    -0.0750 na         1 0JE      -0.001200
     16 NAL         -3.0530    -3.9860    -0.0950 nd         1 0JE      -0.485800
     17 CAM         -3.5410    -2.7540    -0.0830 cc         1 0JE       0.228900
     18 CAN         -2.5540    -1.7450    -0.0570 cc         1 0JE       0.055600
     19 NAO         -2.6940    -0.3660    -0.0380 ns         1 0JE      -0.399100
     20 CAP         -3.8370     0.3950    -0.0650 c          1 0JE       0.668100
     21 OAR         -4.9510    -0.1040    -0.1290 o          1 0JE      -0.638100
     22 NAQ         -3.6410     1.7940    -0.0260 n          1 0JE      -0.428800
     23 CAU         -4.7970     2.7140    -0.1310 c3         1 0JE       0.109000
     24 CAV         -5.3270     3.1700     1.2400 c3         1 0JE      -0.114600
     25 CAS         -2.3030     2.4140     0.1550 c3         1 0JE       0.109000
     26 CAT         -1.5880     2.6920    -1.1790 c3         1 0JE      -0.114600
     27 H1           5.9260     3.8200     0.9530 hc         1 0JE       0.049367
     28 H2           5.9350     3.8380    -0.8280 hc         1 0JE       0.049367
     29 H3           4.9860     5.0420     0.0700 hc         1 0JE       0.049367
     30 H4           3.4830     3.2420     0.9370 h1         1 0JE       0.034700
     31 H5           3.4920     3.2600    -0.8480 h1         1 0JE       0.034700
     32 H6           1.8480     1.7250     0.0220 ha         1 0JE       0.134000
     33 H7           3.9350    -2.8320    -0.0210 ha         1 0JE       0.139000
     34 H8           1.1910    -3.5880    -0.0470 hn         1 0JE       0.358000
     35 H10         -1.0200    -4.5590    -0.0790 hn         1 0JE       0.370000
     36 H11         -4.6150    -2.6280    -0.0930 h4         1 0JE       0.071100
     37 H12         -1.8350     0.1690    -0.0170 hn         1 0JE       0.364500
     38 H13         -4.4930     3.6000    -0.7050 h1         1 0JE       0.051950
     39 H14         -5.6090     2.2350    -0.6930 h1         1 0JE       0.051950
     40 H15         -5.6570     2.3070     1.8310 hc         1 0JE       0.042033
     41 H16         -4.5500     3.7000     1.8030 hc         1 0JE       0.042033
     42 H17         -6.1800     3.8460     1.1120 hc         1 0JE       0.042033
     43 H18         -2.4260     3.3690     0.6830 h1         1 0JE       0.051950
     44 H19         -1.6710     1.7870     0.7970 h1         1 0JE       0.051950
     45 H20         -2.1830     3.3690    -1.8030 hc         1 0JE       0.042033
     46 H21         -0.6130     3.1600    -0.9960 hc         1 0JE       0.042033
     47 H22         -1.4240     1.7620    -1.7350 hc         1 0JE       0.042033
@<TRIPOS>BOND
     1     1     2 1   
     2     1    27 1   
     3     1    28 1   
     4     1    29 1   
     5     2     3 1   
     6     2    30 1   
     7     2    31 1   
     8     3     4 1   
     9     4     5 ar  
    10     4     6 ar  
    11     5    11 ar  
    12     5    32 1   
    13     6     7 1   
    14     6     8 ar  
    15     8     9 ar  
    16     8    33 1   
    17     9    10 1   
    18     9    11 ar  
    19    10    13 1   
    20    10    34 1   
    21    11    12 1   
    22    12    13 2   
    23    13    14 1   
    24    14    15 1   
    25    14    18 2   
    26    15    16 1   
    27    15    35 1   
    28    16    17 2   
    29    17    18 1   
    30    17    36 1   
    31    18    19 1   
    32    19    20 1   
    33    19    37 1   
    34    20    21 2   
    35    20    22 1   
    36    22    23 1   
    37    22    25 1   
    38    23    24 1   
    39    23    38 1   
    40    23    39 1   
    41    24    40 1   
    42    24    41 1   
    43    24    42 1   
    44    25    26 1   
    45    25    43 1   
    46    25    44 1   
    47    26    45 1   
    48    26    46 1   
    49    26    47 1   
@<TRIPOS>SUBSTRUCTURE
     1 0JE         1 TEMP              0 ****  ****    0 ROOT
