@<TRIPOS>MOLECULE
0JF
   69    72     1     0     0
SMALL
No Charge or Current Charge


@<TRIPOS>ATOM
      1 C24         -6.4130    -2.1000     1.9980 c3         1 0JF       0.146400
      2 O2          -6.6960    -0.7260     1.6800 os         1 0JF      -0.324100
      3 C5          -5.8440     0.0740     0.9360 ca         1 0JF       0.185600
      4 C6          -4.6400    -0.4590     0.4270 ca         1 0JF      -0.280000
      5 C4          -6.1720     1.4380     0.6700 ca         1 0JF      -0.009900
      6 O3          -7.3280     2.0810     1.1180 os         1 0JF      -0.323100
      7 C25         -8.3520     1.4760     1.9280 c3         1 0JF       0.146900
      8 C3          -5.2820     2.2160    -0.1080 ca         1 0JF       0.185600
      9 O4          -5.6180     3.5360    -0.3650 os         1 0JF      -0.324100
     10 C26         -4.7850     4.4140    -1.1420 c3         1 0JF       0.146400
     11 C2          -4.0880     1.6560    -0.6020 ca         1 0JF      -0.280000
     12 C1          -3.7630     0.3310    -0.3210 ca         1 0JF       0.393000
     13 N5          -2.5790    -0.1750    -0.8430 nu         1 0JF      -0.936900
     14 C16         -1.6820    -1.1550    -0.4540 ca         1 0JF       0.423900
     15 N2          -0.7170    -1.3990    -1.3480 nb         1 0JF      -0.341000
     16 N1          -1.8340    -1.7380     0.7480 nb         1 0JF      -0.260000
     17 C15         -0.9250    -2.6710     1.0780 ca         1 0JF       0.163900
     18 C14          0.1210    -3.0080     0.2100 ca         1 0JF      -0.313000
     19 C13          0.1920    -2.3350    -1.0210 ca         1 0JF       0.433900
     20 N3           1.2090    -2.5920    -1.9680 nh         1 0JF      -0.762300
     21 C19          1.8190    -1.5020    -2.7830 c6         1 0JF       0.221800
     22 C18          1.9770    -3.8690    -1.9920 c6         1 0JF       0.214800
     23 C17          3.4160    -3.6480    -1.4630 c6         1 0JF      -0.106400
     24 C21          4.1440    -2.5520    -2.2790 c6         1 0JF      -0.052400
     25 C20          3.2850    -1.2600    -2.3520 c6         1 0JF      -0.174700
     26 C22          3.4090    -0.3370    -1.1230 c          1 0JF       0.607100
     27 O1           3.0410    -0.6660    -0.0040 o          1 0JF      -0.588100
     28 N4           3.9810     0.8940    -1.3640 ns         1 0JF      -0.502900
     29 C23          4.2390     1.9070    -0.3420 c3         1 0JF       0.157300
     30 C7           5.6460     1.7760     0.2240 ca         1 0JF      -0.098300
     31 C8           5.8890     0.9510     1.3390 ca         1 0JF      -0.089000
     32 C9           7.1880     0.8260     1.8590 ca         1 0JF      -0.112500
     33 C10          8.2600     1.5210     1.2690 ca         1 0JF      -0.072300
     34 C27          9.6660     1.3880     1.8340 c3         1 0JF      -0.046800
     35 C11          8.0180     2.3460     0.1550 ca         1 0JF      -0.112500
     36 C12          6.7180     2.4720    -0.3660 ca         1 0JF      -0.089000
     37 H1          -5.4810    -2.1850     2.5710 h1         1 0JF       0.041200
     38 H2          -7.2230    -2.5230     2.6040 h1         1 0JF       0.041200
     39 H3          -6.3240    -2.7020     1.0850 h1         1 0JF       0.041200
     40 H4          -4.3840    -1.4970     0.5900 ha         1 0JF       0.138500
     41 H5          -8.8150     0.6280     1.4070 h1         1 0JF       0.030700
     42 H6          -7.9420     1.1330     2.8870 h1         1 0JF       0.030700
     43 H7          -9.1410     2.2070     2.1440 h1         1 0JF       0.030700
     44 H8          -3.8000     4.5320    -0.6740 h1         1 0JF       0.041200
     45 H9          -4.6510     4.0260    -2.1590 h1         1 0JF       0.041200
     46 H10         -5.2470     5.4070    -1.2160 h1         1 0JF       0.041200
     47 H11         -3.3980     2.2440    -1.1950 ha         1 0JF       0.138500
     48 H12         -2.2400     0.3460    -1.6480 hn         1 0JF       0.501000
     49 H13         -1.0350    -3.1480     2.0510 h4         1 0JF       0.017100
     50 H14          0.8560    -3.7480     0.5040 ha         1 0JF       0.133000
     51 H15          1.7970    -1.7890    -3.8450 h1         1 0JF       0.066700
     52 H16          1.2580    -0.5590    -2.7060 h1         1 0JF       0.066700
     53 H17          1.4770    -4.6520    -1.4050 h1         1 0JF       0.054700
     54 H18          2.0260    -4.2480    -3.0240 h1         1 0JF       0.054700
     55 H19          3.3780    -3.3690    -0.4020 hc         1 0JF       0.063200
     56 H20          3.9780    -4.5900    -1.5170 hc         1 0JF       0.063200
     57 H21          5.1300    -2.3370    -1.8430 hc         1 0JF       0.047200
     58 H22          4.3270    -2.9250    -3.2970 hc         1 0JF       0.047200
     59 H23          3.7190    -0.6770    -3.1750 hc         1 0JF       0.060700
     60 H24          4.2710     1.0860    -2.3150 hn         1 0JF       0.308500
     61 H25          4.1160     2.8990    -0.7960 h1         1 0JF       0.051700
     62 H26          3.5000     1.8190     0.4640 h1         1 0JF       0.051700
     63 H27          5.0690     0.4050     1.8020 ha         1 0JF       0.111000
     64 H28          7.3610     0.1870     2.7220 ha         1 0JF       0.109500
     65 H29         10.4250     1.5100     1.0520 hc         1 0JF       0.041033
     66 H30          9.8510     2.1470     2.6030 hc         1 0JF       0.041033
     67 H31          9.8220     0.4030     2.2910 hc         1 0JF       0.041033
     68 H32          8.8370     2.8910    -0.3090 ha         1 0JF       0.109500
     69 H33          6.5450     3.1110    -1.2290 ha         1 0JF       0.111000
@<TRIPOS>BOND
     1     1     2 1   
     2     1    37 1   
     3     1    38 1   
     4     1    39 1   
     5     2     3 1   
     6     3     4 ar  
     7     3     5 ar  
     8     4    12 ar  
     9     4    40 1   
    10     5     6 1   
    11     5     8 ar  
    12     6     7 1   
    13     7    41 1   
    14     7    42 1   
    15     7    43 1   
    16     8     9 1   
    17     8    11 ar  
    18     9    10 1   
    19    10    44 1   
    20    10    45 1   
    21    10    46 1   
    22    11    12 ar  
    23    11    47 1   
    24    12    13 1   
    25    13    14 1   
    26    13    48 1   
    27    14    15 ar  
    28    14    16 ar  
    29    15    19 ar  
    30    16    17 ar  
    31    17    18 ar  
    32    17    49 1   
    33    18    19 ar  
    34    18    50 1   
    35    19    20 1   
    36    20    21 1   
    37    20    22 1   
    38    21    25 1   
    39    21    51 1   
    40    21    52 1   
    41    22    23 1   
    42    22    53 1   
    43    22    54 1   
    44    23    24 1   
    45    23    55 1   
    46    23    56 1   
    47    24    25 1   
    48    24    57 1   
    49    24    58 1   
    50    25    26 1   
    51    25    59 1   
    52    26    27 2   
    53    26    28 1   
    54    28    29 1   
    55    28    60 1   
    56    29    30 1   
    57    29    61 1   
    58    29    62 1   
    59    30    31 ar  
    60    30    36 ar  
    61    31    32 ar  
    62    31    63 1   
    63    32    33 ar  
    64    32    64 1   
    65    33    34 1   
    66    33    35 ar  
    67    34    65 1   
    68    34    66 1   
    69    34    67 1   
    70    35    36 ar  
    71    35    68 1   
    72    36    69 1   
@<TRIPOS>SUBSTRUCTURE
     1 0JF         1 TEMP              0 ****  ****    0 ROOT
