@<TRIPOS>MOLECULE
0JF
   69    72     1     0     0
SMALL
abcg2


@<TRIPOS>ATOM
      1 C24         -4.4710    -1.2230     3.1470 c3         1 0JF       0.146400
      2 O2          -4.5710     0.1440     2.8010 os         1 0JF      -0.324100
      3 C5          -3.8360     0.6040     1.7730 ca         1 0JF       0.185600
      4 C6          -2.9610    -0.1950     1.0380 ca         1 0JF      -0.280000
      5 C4          -3.9970     1.9580     1.4810 ca         1 0JF      -0.009900
      6 O3          -4.8350     2.7330     2.2220 os         1 0JF      -0.323100
      7 C25         -6.1660     2.7820     1.7280 c3         1 0JF       0.146900
      8 C3          -3.2760     2.5110     0.4190 ca         1 0JF       0.185600
      9 O4          -3.4880     3.8190     0.1940 os         1 0JF      -0.324100
     10 C26         -2.7910     4.4440    -0.8650 c3         1 0JF       0.146400
     11 C2          -2.4030     1.7260    -0.3230 ca         1 0JF      -0.280000
     12 C1          -2.2460     0.3700    -0.0150 ca         1 0JF       0.393000
     13 N5          -1.3570    -0.3340    -0.8160 nu         1 0JF      -0.936900
     14 C16         -0.9100    -1.6250    -0.7720 ca         1 0JF       0.423900
     15 N2          -0.0230    -1.9050    -1.7220 nb         1 0JF      -0.341000
     16 N1          -1.3560    -2.4550     0.1600 nb         1 0JF      -0.260000
     17 C15         -0.8310    -3.6820     0.1090 ca         1 0JF       0.163900
     18 C14          0.1010    -4.0900    -0.8080 ca         1 0JF      -0.313000
     19 C13          0.5090    -3.1230    -1.7580 ca         1 0JF       0.433900
     20 N3           1.4050    -3.3780    -2.7390 nh         1 0JF      -0.762300
     21 C19          1.9640    -2.2970    -3.5270 c6         1 0JF       0.221800
     22 C18          2.2700    -4.5460    -2.7290 c6         1 0JF       0.214800
     23 C17          3.6100    -4.2080    -2.0870 c6         1 0JF      -0.106400
     24 C21          4.2450    -2.9860    -2.7490 c6         1 0JF      -0.052400
     25 C20          3.2860    -1.8030    -2.9170 c6         1 0JF      -0.174700
     26 C22          3.0170    -1.0520    -1.6230 c          1 0JF       0.607100
     27 O1           3.1660    -1.5460    -0.5160 o          1 0JF      -0.588100
     28 N4           2.5820     0.2110    -1.7860 ns         1 0JF      -0.502900
     29 C23          2.1040     0.9980    -0.6750 c3         1 0JF       0.157300
     30 C7           3.1950     1.4730     0.2520 ca         1 0JF      -0.098300
     31 C8           3.0560     1.3520     1.6270 ca         1 0JF      -0.089000
     32 C9           4.0350     1.8300     2.4900 ca         1 0JF      -0.112500
     33 C10          5.1870     2.4380     2.0010 ca         1 0JF      -0.072300
     34 C27          6.2440     2.9700     2.9250 c3         1 0JF      -0.046800
     35 C11          5.3270     2.5490     0.6170 ca         1 0JF      -0.112500
     36 C12          4.3480     2.0780    -0.2430 ca         1 0JF      -0.089000
     37 H1          -3.4580    -1.4960     3.4510 h1         1 0JF       0.041200
     38 H2          -5.1430    -1.3770     3.9880 h1         1 0JF       0.041200
     39 H3          -4.7820    -1.8760     2.3270 h1         1 0JF       0.041200
     40 H4          -2.8230    -1.2390     1.2660 ha         1 0JF       0.138500
     41 H5          -6.2090     3.2040     0.7200 h1         1 0JF       0.030700
     42 H6          -6.6310     1.7930     1.7130 h1         1 0JF       0.030700
     43 H7          -6.7370     3.4240     2.3970 h1         1 0JF       0.030700
     44 H8          -1.7080     4.4050    -0.7210 h1         1 0JF       0.041200
     45 H9          -3.0330     3.9990    -1.8330 h1         1 0JF       0.041200
     46 H10         -3.1050     5.4840    -0.8690 h1         1 0JF       0.041200
     47 H11         -1.8390     2.1480    -1.1450 ha         1 0JF       0.138500
     48 H12         -0.9360     0.1950    -1.5650 hn         1 0JF       0.501000
     49 H13         -1.1830    -4.3800     0.8610 h4         1 0JF       0.017100
     50 H14          0.4850    -5.0970    -0.7730 ha         1 0JF       0.133000
     51 H15          2.1670    -2.6840    -4.5290 h1         1 0JF       0.066700
     52 H16          1.2380    -1.4950    -3.6310 h1         1 0JF       0.066700
     53 H17          1.7890    -5.3830    -2.2280 h1         1 0JF       0.054700
     54 H18          2.4160    -4.8560    -3.7680 h1         1 0JF       0.054700
     55 H19          3.4640    -4.0340    -1.0210 hc         1 0JF       0.063200
     56 H20          4.2790    -5.0660    -2.1830 hc         1 0JF       0.063200
     57 H21          5.1370    -2.6780    -2.2000 hc         1 0JF       0.047200
     58 H22          4.5850    -3.2690    -3.7500 hc         1 0JF       0.047200
     59 H23          3.7250    -1.0980    -3.6300 hc         1 0JF       0.060700
     60 H24          2.4250     0.5590    -2.7160 hn         1 0JF       0.308500
     61 H25          1.5850     1.8600    -1.0990 h1         1 0JF       0.051700
     62 H26          1.3620     0.4330    -0.1040 h1         1 0JF       0.051700
     63 H27          2.1740     0.8730     2.0360 ha         1 0JF       0.111000
     64 H28          3.9010     1.7190     3.5600 ha         1 0JF       0.109500
     65 H29          7.2380     2.6240     2.6360 hc         1 0JF       0.041033
     66 H30          6.2690     4.0610     2.9080 hc         1 0JF       0.041033
     67 H31          6.0690     2.6610     3.9550 hc         1 0JF       0.041033
     68 H32          6.2170     3.0110     0.2060 ha         1 0JF       0.109500
     69 H33          4.4890     2.1770    -1.3130 ha         1 0JF       0.111000
@<TRIPOS>BOND
     1     1     2 1   
     2     1    37 1   
     3     1    38 1   
     4     1    39 1   
     5     2     3 1   
     6     3     4 ar  
     7     3     5 ar  
     8     4    12 ar  
     9     4    40 1   
    10     5     6 1   
    11     5     8 ar  
    12     6     7 1   
    13     7    41 1   
    14     7    42 1   
    15     7    43 1   
    16     8     9 1   
    17     8    11 ar  
    18     9    10 1   
    19    10    44 1   
    20    10    45 1   
    21    10    46 1   
    22    11    12 ar  
    23    11    47 1   
    24    12    13 1   
    25    13    14 1   
    26    13    48 1   
    27    14    15 ar  
    28    14    16 ar  
    29    15    19 ar  
    30    16    17 ar  
    31    17    18 ar  
    32    17    49 1   
    33    18    19 ar  
    34    18    50 1   
    35    19    20 1   
    36    20    21 1   
    37    20    22 1   
    38    21    25 1   
    39    21    51 1   
    40    21    52 1   
    41    22    23 1   
    42    22    53 1   
    43    22    54 1   
    44    23    24 1   
    45    23    55 1   
    46    23    56 1   
    47    24    25 1   
    48    24    57 1   
    49    24    58 1   
    50    25    26 1   
    51    25    59 1   
    52    26    27 2   
    53    26    28 1   
    54    28    29 1   
    55    28    60 1   
    56    29    30 1   
    57    29    61 1   
    58    29    62 1   
    59    30    31 ar  
    60    30    36 ar  
    61    31    32 ar  
    62    31    63 1   
    63    32    33 ar  
    64    32    64 1   
    65    33    34 1   
    66    33    35 ar  
    67    34    65 1   
    68    34    66 1   
    69    34    67 1   
    70    35    36 ar  
    71    35    68 1   
    72    36    69 1   
@<TRIPOS>SUBSTRUCTURE
     1 0JF         1 TEMP              0 ****  ****    0 ROOT
