@<TRIPOS>MOLECULE
0JG
   50    52     1     0     0
SMALL
No Charge or Current Charge


@<TRIPOS>ATOM
      1 N01          1.8820     3.7090     0.5590 nv         1 0JG      -1.074900
      2 C02          0.5580     3.5100     0.3750 ca         1 0JG       0.439900
      3 C03         -0.0210     2.2690     0.0610 ca         1 0JG      -0.251800
      4 C04         -1.3640     2.2170    -0.2370 ca         1 0JG       0.168500
      5 N05         -1.6730     0.9130    -0.6230 na         1 0JG      -0.094300
      6 C06         -2.9740     0.4960    -1.0240 c2         1 0JG      -0.129100
      7 C07         -4.1190     0.8510    -0.4170 c2         1 0JG      -0.193200
      8 C08         -5.5000     0.4140    -0.8430 c3         1 0JG       0.200800
      9 O09         -5.6870    -0.9610    -0.5060 oh         1 0JG      -0.648000
     10 C10         -0.5180     0.0970    -0.6100 cc         1 0JG      -0.072300
     11 C11         -0.5110    -1.3950    -0.8950 c3         1 0JG       0.002800
     12 C12         -0.0870    -2.2580     0.3250 c3         1 0JG      -0.059600
     13 C13          0.0150    -3.7350    -0.0520 c          1 0JG       0.600100
     14 O14          1.2930    -4.2140     0.0950 os         1 0JG      -0.425100
     15 C15          1.5420    -5.5940    -0.2300 c3         1 0JG       0.150900
     16 O16         -0.9300    -4.4080    -0.4440 o          1 0JG      -0.480000
     17 C17         -0.9790    -2.0800     1.4720 c1         1 0JG       0.299900
     18 N18         -1.6650    -1.9330     2.4020 n1         1 0JG      -0.424000
     19 C19          0.4950     0.9210    -0.1250 cd         1 0JG      -0.037400
     20 C20          1.9120     0.5360     0.0440 ca         1 0JG      -0.039800
     21 C21          2.5740    -0.2470    -0.9230 ca         1 0JG      -0.105500
     22 C22          3.9090    -0.6440    -0.7350 ca         1 0JG      -0.112500
     23 C23          4.6030    -0.2750     0.4300 ca         1 0JG      -0.072300
     24 C24          6.0480    -0.7040     0.6330 c3         1 0JG      -0.048800
     25 C25          3.9460     0.4980     1.4040 ca         1 0JG      -0.112500
     26 C26          2.6120     0.8950     1.2130 ca         1 0JG      -0.105500
     27 N27         -2.1320     3.3270    -0.1880 nb         1 0JG      -0.230000
     28 C28         -1.5050     4.4720     0.1610 ca         1 0JG       0.185900
     29 N29         -0.1880     4.6210     0.4320 nb         1 0JG      -0.304000
     30 H1           2.5090     2.9580     0.2870 hn         1 0JG       0.502500
     31 H2           2.2410     4.6570     0.4910 hn         1 0JG       0.502500
     32 H3          -2.9610    -0.1630    -1.8920 h4         1 0JG       0.187000
     33 H4          -4.1130     1.5000     0.4590 ha         1 0JG       0.216000
     34 H5          -6.2530     1.0360    -0.3400 h1         1 0JG       0.024200
     35 H6          -5.6130     0.5620    -1.9250 h1         1 0JG       0.024200
     36 H7          -6.5940    -1.2020    -0.7980 ho         1 0JG       0.442000
     37 H8          -1.5010    -1.7310    -1.2240 hc         1 0JG       0.075700
     38 H9           0.1520    -1.6090    -1.7400 hc         1 0JG       0.075700
     39 H10          0.9090    -1.9390     0.6480 hc         1 0JG       0.111700
     40 H11          0.9380    -6.2600     0.3990 h1         1 0JG       0.053033
     41 H12          1.3040    -5.7980    -1.2820 h1         1 0JG       0.053033
     42 H13          2.5990    -5.8390    -0.0680 h1         1 0JG       0.053033
     43 H14          2.0700    -0.5210    -1.8450 ha         1 0JG       0.121500
     44 H15          4.4050    -1.2360    -1.5010 ha         1 0JG       0.115500
     45 H16          6.7380     0.0380     0.2160 hc         1 0JG       0.044367
     46 H17          6.2840    -0.8210     1.6980 hc         1 0JG       0.044367
     47 H18          6.2520    -1.6640     0.1440 hc         1 0JG       0.044367
     48 H19          4.4660     0.7830     2.3160 ha         1 0JG       0.115500
     49 H20          2.1080     1.4550     1.9980 ha         1 0JG       0.121500
     50 H21         -2.1180     5.3700     0.2060 h5         1 0JG       0.045100
@<TRIPOS>BOND
     1     1     2 1   
     2     1    30 1   
     3     1    31 1   
     4     2     3 ar  
     5     2    29 ar  
     6     3     4 ar  
     7     3    19 1   
     8     4     5 1   
     9     4    27 ar  
    10     5     6 1   
    11     5    10 1   
    12     6     7 2   
    13     6    32 1   
    14     7     8 1   
    15     7    33 1   
    16     8     9 1   
    17     8    34 1   
    18     8    35 1   
    19     9    36 1   
    20    10    11 1   
    21    10    19 2   
    22    11    12 1   
    23    11    37 1   
    24    11    38 1   
    25    12    13 1   
    26    12    17 1   
    27    12    39 1   
    28    13    14 1   
    29    13    16 2   
    30    14    15 1   
    31    15    40 1   
    32    15    41 1   
    33    15    42 1   
    34    17    18 3   
    35    19    20 1   
    36    20    21 ar  
    37    20    26 ar  
    38    21    22 ar  
    39    21    43 1   
    40    22    23 ar  
    41    22    44 1   
    42    23    24 1   
    43    23    25 ar  
    44    24    45 1   
    45    24    46 1   
    46    24    47 1   
    47    25    26 ar  
    48    25    48 1   
    49    26    49 1   
    50    27    28 ar  
    51    28    29 ar  
    52    28    50 1   
@<TRIPOS>SUBSTRUCTURE
     1 0JG         1 TEMP              0 ****  ****    0 ROOT
