@<TRIPOS>MOLECULE
0JG
   50    52     1     0     0
SMALL
bcc


@<TRIPOS>ATOM
      1 N01          1.7380     3.8320     0.7450 nv         1 0JG      -0.964500
      2 C02          0.4550     3.5060     0.5470 ca         1 0JG       0.768200
      3 C03          0.0430     2.2320     0.1010 ca         1 0JG      -0.382400
      4 C04         -1.3310     2.0720    -0.0780 ca         1 0JG       0.496800
      5 N05         -1.5540     0.8100    -0.5570 na         1 0JG      -0.094300
      6 C06         -2.7940     0.2520    -0.9070 c2         1 0JG      -0.079100
      7 C07         -3.9400     0.4840    -0.2810 c2         1 0JG      -0.143200
      8 C08         -5.2340    -0.0680    -0.7780 c3         1 0JG       0.177600
      9 O09         -5.8700    -0.7460     0.2850 oh         1 0JG      -0.585800
     10 C10         -0.3280     0.1690    -0.6890 cc         1 0JG      -0.072300
     11 C11         -0.2060    -1.2690    -1.0650 c3         1 0JG       0.002800
     12 C12          0.1000    -2.1430     0.1650 c3         1 0JG      -0.059600
     13 C13          0.2670    -3.6110    -0.2080 c          1 0JG       0.649100
     14 O14         -0.0280    -4.4060     0.7950 os         1 0JG      -0.401900
     15 C15          0.1420    -5.8160     0.6000 c3         1 0JG       0.127700
     16 O16          0.6610    -3.9660    -1.2860 o          1 0JG      -0.529000
     17 C17         -0.9000    -1.9550     1.2080 c1         1 0JG       0.210700
     18 N18         -1.6970    -1.7700     2.0150 n1         1 0JG      -0.334800
     19 C19          0.6740     1.0100    -0.2890 cd         1 0JG      -0.037400
     20 C20          2.1010     0.6640    -0.2150 ca         1 0JG      -0.039800
     21 C21          2.8120     0.2760    -1.3510 ca         1 0JG      -0.123500
     22 C22          4.1500    -0.0750    -1.2660 ca         1 0JG      -0.130500
     23 C23          4.8290    -0.0410    -0.0490 ca         1 0JG      -0.072300
     24 C24          6.2870    -0.3840     0.0320 c3         1 0JG      -0.048800
     25 C25          4.1180     0.3500     1.0840 ca         1 0JG      -0.130500
     26 C26          2.7760     0.6940     1.0060 ca         1 0JG      -0.123500
     27 N27         -2.2570     3.0040     0.1440 nb         1 0JG      -0.756000
     28 C28         -1.7480     4.1390     0.5770 ca         1 0JG       0.711900
     29 N29         -0.4700     4.4390     0.7900 nb         1 0JG      -0.830000
     30 H1           2.4870     3.2090     0.5020 hn         1 0JG       0.447300
     31 H2           1.9740     4.7760     0.9970 hn         1 0JG       0.447300
     32 H3          -2.7640    -0.3930    -1.7780 h4         1 0JG       0.137000
     33 H4          -3.9810     1.1220     0.5940 ha         1 0JG       0.166000
     34 H5          -5.8540     0.7620    -1.1430 h1         1 0JG       0.024200
     35 H6          -5.0530    -0.7270    -1.6380 h1         1 0JG       0.024200
     36 H7          -6.7710    -0.9440     0.0140 ho         1 0JG       0.403000
     37 H8          -1.1030    -1.6410    -1.5570 hc         1 0JG       0.075700
     38 H9           0.6090    -1.4000    -1.7750 hc         1 0JG       0.075700
     39 H10          1.0620    -1.8270     0.5900 hc         1 0JG       0.111700
     40 H11         -0.5010    -6.1800    -0.2000 h1         1 0JG       0.053033
     41 H12          1.1800    -6.0560     0.3720 h1         1 0JG       0.053033
     42 H13         -0.1420    -6.2800     1.5380 h1         1 0JG       0.053033
     43 H14          2.3160     0.2620    -2.3140 ha         1 0JG       0.139500
     44 H15          4.6760    -0.3730    -2.1650 ha         1 0JG       0.133500
     45 H16          6.9040     0.4830    -0.2140 hc         1 0JG       0.044367
     46 H17          6.5670    -0.7080     1.0340 hc         1 0JG       0.044367
     47 H18          6.5520    -1.1760    -0.6680 hc         1 0JG       0.044367
     48 H19          4.6170     0.3760     2.0450 ha         1 0JG       0.133500
     49 H20          2.2450     0.9750     1.9080 ha         1 0JG       0.139500
     50 H21         -2.4570     4.9340     0.7850 h5         1 0JG       0.045100
@<TRIPOS>BOND
     1     1     2 1   
     2     1    30 1   
     3     1    31 1   
     4     2     3 ar  
     5     2    29 ar  
     6     3     4 ar  
     7     3    19 1   
     8     4     5 1   
     9     4    27 ar  
    10     5     6 1   
    11     5    10 1   
    12     6     7 2   
    13     6    32 1   
    14     7     8 1   
    15     7    33 1   
    16     8     9 1   
    17     8    34 1   
    18     8    35 1   
    19     9    36 1   
    20    10    11 1   
    21    10    19 2   
    22    11    12 1   
    23    11    37 1   
    24    11    38 1   
    25    12    13 1   
    26    12    17 1   
    27    12    39 1   
    28    13    14 1   
    29    13    16 2   
    30    14    15 1   
    31    15    40 1   
    32    15    41 1   
    33    15    42 1   
    34    17    18 3   
    35    19    20 1   
    36    20    21 ar  
    37    20    26 ar  
    38    21    22 ar  
    39    21    43 1   
    40    22    23 ar  
    41    22    44 1   
    42    23    24 1   
    43    23    25 ar  
    44    24    45 1   
    45    24    46 1   
    46    24    47 1   
    47    25    26 ar  
    48    25    48 1   
    49    26    49 1   
    50    27    28 ar  
    51    28    29 ar  
    52    28    50 1   
@<TRIPOS>SUBSTRUCTURE
     1 0JG         1 TEMP              0 ****  ****    0 ROOT
