@<TRIPOS>MOLECULE
0JH
   61    63     1     0     0
SMALL
bcc


@<TRIPOS>ATOM
      1 N01          4.0180     2.4990    -0.7770 nv         1 0JH      -0.962500
      2 C02          3.9000     1.1680    -0.8810 ca         1 0JH       0.767200
      3 C03          2.7590     0.4610    -0.4470 ca         1 0JH      -0.379400
      4 C04          2.8310    -0.9280    -0.5810 ca         1 0JH       0.486800
      5 N05          1.6820    -1.4660    -0.1010 na         1 0JH      -0.141100
      6 C06          1.4130    -2.8880    -0.0460 c3         1 0JH       0.045300
      7 C07          1.7830    -3.5070     1.2950 c3         1 0JH      -0.104400
      8 C08          1.4960    -4.9960     1.2980 c3         1 0JH       0.143400
      9 O09          1.8580    -5.5230     2.5540 oh         1 0JH      -0.595800
     10 C10          0.8760    -0.4440     0.3620 cc         1 0JH      -0.074300
     11 C11         -0.5040    -0.6790     0.8780 c3         1 0JH       0.001800
     12 C12         -1.5650    -0.1850    -0.1200 c3         1 0JH      -0.068600
     13 C13         -2.9920    -0.3800     0.3980 c          1 0JH       0.664100
     14 O14         -3.8470    -0.3110    -0.5910 os         1 0JH      -0.429900
     15 C15         -5.2980    -0.4470    -0.4270 c3         1 0JH       0.183800
     16 C16         -5.8160    -0.2470    -1.8440 c3         1 0JH      -0.108767
     17 C17         -5.6390    -1.8450     0.0710 c3         1 0JH      -0.108767
     18 C18         -5.8440     0.6390     0.4900 c3         1 0JH      -0.108767
     19 O19         -3.2330    -0.5390     1.5640 o          1 0JH      -0.534000
     20 C20         -1.3850    -0.8140    -1.4210 c1         1 0JH       0.223700
     21 N21         -1.1990    -1.3270    -2.4330 n1         1 0JH      -0.357800
     22 C22          1.5000     0.7600     0.1580 cd         1 0JH      -0.044400
     23 C23          0.9290     2.0860     0.4420 ca         1 0JH      -0.033800
     24 C24          0.7130     2.9940    -0.5950 ca         1 0JH      -0.126000
     25 C25          0.1740     4.2480    -0.3430 ca         1 0JH      -0.130000
     26 C26         -0.1760     4.6340     0.9480 ca         1 0JH      -0.074300
     27 C27         -0.7800     5.9790     1.2250 c3         1 0JH      -0.048800
     28 C28          0.0400     3.7240     1.9820 ca         1 0JH      -0.130000
     29 C29          0.5860     2.4740     1.7380 ca         1 0JH      -0.126000
     30 N30          3.8590    -1.6150    -1.0860 nb         1 0JH      -0.760000
     31 C31          4.8480    -0.8360    -1.4720 ca         1 0JH       0.709900
     32 N32          4.9280     0.4900    -1.4000 nb         1 0JH      -0.832000
     33 H1           3.2460     3.0770    -0.4940 hn         1 0JH       0.445300
     34 H2           4.8180     2.9540    -1.1830 hn         1 0JH       0.445300
     35 H3           0.3610    -3.0580    -0.2800 h1         1 0JH       0.069200
     36 H4           1.9850    -3.3540    -0.8480 h1         1 0JH       0.069200
     37 H5           2.8450    -3.3340     1.4900 hc         1 0JH       0.066700
     38 H6           1.2220    -3.0230     2.0990 hc         1 0JH       0.066700
     39 H7           0.4320    -5.1600     1.0830 h1         1 0JH       0.017700
     40 H8           2.0590    -5.4730     0.4840 h1         1 0JH       0.017700
     41 H9           1.7020    -6.4710     2.5380 ho         1 0JH       0.406000
     42 H10         -0.6800    -1.7310     1.1020 hc         1 0JH       0.076700
     43 H11         -0.6520    -0.1420     1.8130 hc         1 0JH       0.076700
     44 H12         -1.4340     0.8950    -0.2710 hc         1 0JH       0.111700
     45 H13         -5.4000    -0.9880    -2.5270 hc         1 0JH       0.051589
     46 H14         -6.9010    -0.3510    -1.8570 hc         1 0JH       0.051589
     47 H15         -5.5710     0.7470    -2.2200 hc         1 0JH       0.051589
     48 H16         -5.3250    -2.0100     1.1000 hc         1 0JH       0.051589
     49 H17         -6.7200    -1.9790     0.0310 hc         1 0JH       0.051589
     50 H18         -5.1850    -2.6090    -0.5620 hc         1 0JH       0.051589
     51 H19         -5.5050     1.6260     0.1740 hc         1 0JH       0.051589
     52 H20         -6.9330     0.6300     0.4280 hc         1 0JH       0.051589
     53 H21         -5.5720     0.4890     1.5320 hc         1 0JH       0.051589
     54 H22          0.9550     2.7100    -1.6130 ha         1 0JH       0.139000
     55 H23          0.0200     4.9330    -1.1690 ha         1 0JH       0.132500
     56 H24         -1.8470     5.8920     1.4430 hc         1 0JH       0.044033
     57 H25         -0.3150     6.4530     2.0900 hc         1 0JH       0.044033
     58 H26         -0.6730     6.6510     0.3750 hc         1 0JH       0.044033
     59 H27         -0.2120     4.0020     2.9990 ha         1 0JH       0.132500
     60 H28          0.7610     1.7960     2.5640 ha         1 0JH       0.139000
     61 H29          5.7120    -1.3330    -1.9020 h5         1 0JH       0.044100
@<TRIPOS>BOND
     1     1     2 1   
     2     1    33 1   
     3     1    34 1   
     4     2     3 ar  
     5     2    32 ar  
     6     3     4 ar  
     7     3    22 1   
     8     4     5 1   
     9     4    30 ar  
    10     5     6 1   
    11     5    10 1   
    12     6     7 1   
    13     6    35 1   
    14     6    36 1   
    15     7     8 1   
    16     7    37 1   
    17     7    38 1   
    18     8     9 1   
    19     8    39 1   
    20     8    40 1   
    21     9    41 1   
    22    10    11 1   
    23    10    22 2   
    24    11    12 1   
    25    11    42 1   
    26    11    43 1   
    27    12    13 1   
    28    12    20 1   
    29    12    44 1   
    30    13    14 1   
    31    13    19 2   
    32    14    15 1   
    33    15    16 1   
    34    15    17 1   
    35    15    18 1   
    36    16    45 1   
    37    16    46 1   
    38    16    47 1   
    39    17    48 1   
    40    17    49 1   
    41    17    50 1   
    42    18    51 1   
    43    18    52 1   
    44    18    53 1   
    45    20    21 3   
    46    22    23 1   
    47    23    24 ar  
    48    23    29 ar  
    49    24    25 ar  
    50    24    54 1   
    51    25    26 ar  
    52    25    55 1   
    53    26    27 1   
    54    26    28 ar  
    55    27    56 1   
    56    27    57 1   
    57    27    58 1   
    58    28    29 ar  
    59    28    59 1   
    60    29    60 1   
    61    30    31 ar  
    62    31    32 ar  
    63    31    61 1   
@<TRIPOS>SUBSTRUCTURE
     1 0JH         1 TEMP              0 ****  ****    0 ROOT
