@<TRIPOS>MOLECULE
0JH
   61    63     1     0     0
SMALL
No Charge or Current Charge


@<TRIPOS>ATOM
      1 N01          3.5650     2.6620    -0.5670 nv         1 0JH      -1.072900
      2 C02          3.7580     1.3230    -0.5850 ca         1 0JH       0.438900
      3 C03          2.7440     0.3750    -0.3710 ca         1 0JH      -0.248800
      4 C04          3.0860    -0.9550    -0.2850 ca         1 0JH       0.158500
      5 N05          1.9330    -1.6680     0.0250 na         1 0JH      -0.170400
      6 C06          1.9640    -3.1390     0.1440 c3         1 0JH       0.074600
      7 C07          2.1370    -3.6150     1.6000 c3         1 0JH      -0.104400
      8 C08          2.1580    -5.1490     1.7240 c3         1 0JH       0.166600
      9 O09          2.3210    -5.5160     3.0960 oh         1 0JH      -0.658000
     10 C10          0.8230    -0.8140     0.1930 cc         1 0JH      -0.074300
     11 C11         -0.5920    -1.2690     0.4920 c3         1 0JH       0.001800
     12 C12         -1.5750    -0.9810    -0.6740 c3         1 0JH      -0.068600
     13 C13         -3.0220    -1.0090    -0.1930 c          1 0JH       0.615100
     14 O14         -3.5850     0.2460    -0.2670 os         1 0JH      -0.453100
     15 C15         -4.9300     0.5380     0.1750 c3         1 0JH       0.207000
     16 C16         -5.0900     2.0510    -0.0940 c3         1 0JH      -0.108767
     17 C17         -5.9450    -0.2650    -0.6770 c3         1 0JH      -0.108767
     18 C18         -5.0490     0.2560     1.6940 c3         1 0JH      -0.108767
     19 O19         -3.5770    -2.0180     0.2220 o          1 0JH      -0.485000
     20 C20         -1.3740    -1.8770    -1.8110 c1         1 0JH       0.312900
     21 N21         -1.1830    -2.5900    -2.7120 n1         1 0JH      -0.447000
     22 C22          1.3100     0.4540    -0.1200 cd         1 0JH      -0.044400
     23 C23          0.5290     1.7090    -0.0840 ca         1 0JH      -0.033800
     24 C24          0.6260     2.6340    -1.1430 ca         1 0JH      -0.108000
     25 C25         -0.1680     3.7940    -1.1610 ca         1 0JH      -0.112000
     26 C26         -1.0770     4.0480    -0.1200 ca         1 0JH      -0.074300
     27 C27         -1.9500     5.2930    -0.1430 c3         1 0JH      -0.048800
     28 C28         -1.1820     3.1300     0.9390 ca         1 0JH      -0.112000
     29 C29         -0.3890     1.9700     0.9540 ca         1 0JH      -0.108000
     30 N30          4.3600    -1.3640    -0.4500 nb         1 0JH      -0.234000
     31 C31          5.2690    -0.3910    -0.6880 ca         1 0JH       0.183900
     32 N32          5.0310     0.9400    -0.7500 nb         1 0JH      -0.306000
     33 H1           2.6760     3.0000    -0.2130 hn         1 0JH       0.500500
     34 H2           4.3740     3.2640    -0.4400 hn         1 0JH       0.500500
     35 H3           1.0340    -3.5490    -0.2700 h1         1 0JH       0.069200
     36 H4           2.7860    -3.5330    -0.4670 h1         1 0JH       0.069200
     37 H5           3.0730    -3.2070     2.0020 hc         1 0JH       0.066700
     38 H6           1.3210    -3.2140     2.2130 hc         1 0JH       0.066700
     39 H7           1.2190    -5.5580     1.3290 h1         1 0JH       0.017700
     40 H8           2.9840    -5.5510     1.1210 h1         1 0JH       0.017700
     41 H9           2.3320    -6.4990     3.1300 ho         1 0JH       0.445000
     42 H10         -0.6220    -2.3390     0.7350 hc         1 0JH       0.076700
     43 H11         -0.9510    -0.7760     1.4000 hc         1 0JH       0.076700
     44 H12         -1.3850     0.0340    -1.0350 hc         1 0JH       0.111700
     45 H13         -4.9620     2.2730    -1.1600 hc         1 0JH       0.051589
     46 H14         -6.0850     2.3980     0.2080 hc         1 0JH       0.051589
     47 H15         -4.3440     2.6280     0.4660 hc         1 0JH       0.051589
     48 H16         -5.9480    -1.3290    -0.4160 hc         1 0JH       0.051589
     49 H17         -6.9620     0.1110    -0.5130 hc         1 0JH       0.051589
     50 H18         -5.7180    -0.1700    -1.7450 hc         1 0JH       0.051589
     51 H19         -4.2110     0.7060     2.2400 hc         1 0JH       0.051589
     52 H20         -5.9780     0.6820     2.0900 hc         1 0JH       0.051589
     53 H21         -5.0670    -0.8180     1.9120 hc         1 0JH       0.051589
     54 H22          1.2870     2.4300    -1.9830 ha         1 0JH       0.121000
     55 H23         -0.0860     4.4870    -1.9960 ha         1 0JH       0.114500
     56 H24         -2.9310     5.0730    -0.5820 hc         1 0JH       0.044033
     57 H25         -2.1160     5.6820     0.8690 hc         1 0JH       0.044033
     58 H26         -1.4910     6.0950    -0.7320 hc         1 0JH       0.044033
     59 H27         -1.8800     3.3130     1.7530 ha         1 0JH       0.114500
     60 H28         -0.4680     1.2950     1.8000 ha         1 0JH       0.121000
     61 H29          6.3010    -0.7100    -0.8240 h5         1 0JH       0.044100
@<TRIPOS>BOND
     1     1     2 1   
     2     1    33 1   
     3     1    34 1   
     4     2     3 ar  
     5     2    32 ar  
     6     3     4 ar  
     7     3    22 1   
     8     4     5 1   
     9     4    30 ar  
    10     5     6 1   
    11     5    10 1   
    12     6     7 1   
    13     6    35 1   
    14     6    36 1   
    15     7     8 1   
    16     7    37 1   
    17     7    38 1   
    18     8     9 1   
    19     8    39 1   
    20     8    40 1   
    21     9    41 1   
    22    10    11 1   
    23    10    22 2   
    24    11    12 1   
    25    11    42 1   
    26    11    43 1   
    27    12    13 1   
    28    12    20 1   
    29    12    44 1   
    30    13    14 1   
    31    13    19 2   
    32    14    15 1   
    33    15    16 1   
    34    15    17 1   
    35    15    18 1   
    36    16    45 1   
    37    16    46 1   
    38    16    47 1   
    39    17    48 1   
    40    17    49 1   
    41    17    50 1   
    42    18    51 1   
    43    18    52 1   
    44    18    53 1   
    45    20    21 3   
    46    22    23 1   
    47    23    24 ar  
    48    23    29 ar  
    49    24    25 ar  
    50    24    54 1   
    51    25    26 ar  
    52    25    55 1   
    53    26    27 1   
    54    26    28 ar  
    55    27    56 1   
    56    27    57 1   
    57    27    58 1   
    58    28    29 ar  
    59    28    59 1   
    60    29    60 1   
    61    30    31 ar  
    62    31    32 ar  
    63    31    61 1   
@<TRIPOS>SUBSTRUCTURE
     1 0JH         1 TEMP              0 ****  ****    0 ROOT
