@<TRIPOS>MOLECULE
0JI
   23    24     1     0     0
SMALL
bcc


@<TRIPOS>ATOM
      1 C15        -46.3960     4.8070     4.5160 c3         1 0JI      -0.012800
      2 C01        -44.1540     2.1000     0.6170 ca         1 0JI      -0.147000
      3 C02        -43.3110     3.2010     0.6900 ca         1 0JI      -0.129500
      4 C03        -43.7490     4.3810     1.2720 ca         1 0JI      -0.124000
      5 C04        -45.0440     4.4550     1.7700 ca         1 0JI       0.040800
      6 C05        -45.8990     3.3650     1.6910 ca         1 0JI      -0.124000
      7 C06        -45.4460     2.1840     1.1200 ca         1 0JI      -0.129500
      8 C08        -46.0980     5.8810     3.5360 cc         1 0JI      -0.177900
      9 C09        -46.2830     7.2490     3.5620 cd         1 0JI       0.240800
     10 C12        -46.9150     8.1090     4.6290 c          1 0JI       0.847100
     11 N07        -45.4920     5.6680     2.3450 na         1 0JI       0.116300
     12 N10        -45.7790     7.7570     2.4110 nd         1 0JI      -0.328000
     13 N11        -45.3090     6.8140     1.6860 nc         1 0JI      -0.255800
     14 O13        -47.4160     7.4970     5.5930 o          1 0JI      -0.813300
     15 O14        -46.8790     9.3370     4.4420 o          1 0JI      -0.813300
     16 H1         -45.6440     4.0190     4.4890 hc         1 0JI       0.047033
     17 H2         -46.4330     5.2290     5.5150 hc         1 0JI       0.047033
     18 H3         -47.3650     4.3450     4.3190 hc         1 0JI       0.047033
     19 H6         -43.0910     5.2370     1.3430 ha         1 0JI       0.151500
     20 H7         -46.9140     3.4370     2.0580 ha         1 0JI       0.151500
     21 H8         -46.1100     1.3320     1.0600 ha         1 0JI       0.123500
     22 H4         -43.8060     1.1800     0.1670 ha         1 0JI       0.120000
     23 H5         -42.3030     3.1420     0.3000 ha         1 0JI       0.123500
@<TRIPOS>BOND
     1     1     8 1   
     2     1    16 1   
     3     1    17 1   
     4     1    18 1   
     5     2     3 ar  
     6     2     7 ar  
     7     2    22 1   
     8     3     4 ar  
     9     3    23 1   
    10     4     5 ar  
    11     4    19 1   
    12     5     6 ar  
    13     5    11 1   
    14     6     7 ar  
    15     6    20 1   
    16     7    21 1   
    17     8     9 2   
    18     8    11 1   
    19     9    10 1   
    20     9    12 1   
    21    10    14 1   
    22    10    15 1   
    23    11    13 1   
    24    12    13 2   
@<TRIPOS>SUBSTRUCTURE
     1 0JI         1 TEMP              0 ****  ****    0 ROOT
