@<TRIPOS>MOLECULE
0JI
   23    24     1     0     0
SMALL
No Charge or Current Charge


@<TRIPOS>ATOM
      1 C15        -46.2030     4.8430     4.5670 c3         1 0JI      -0.012800
      2 C01        -44.1810     2.0630     0.6610 ca         1 0JI      -0.129000
      3 C02        -43.2600     3.1040     0.8720 ca         1 0JI      -0.111500
      4 C03        -43.6940     4.3300     1.4050 ca         1 0JI      -0.106000
      5 C04        -45.0510     4.5210     1.7340 ca         1 0JI       0.040800
      6 C05        -45.9710     3.4750     1.5160 ca         1 0JI      -0.106000
      7 C06        -45.5360     2.2490     0.9820 ca         1 0JI      -0.111500
      8 C08        -46.0410     5.9100     3.5060 cc         1 0JI      -0.163300
      9 C09        -46.3610     7.2570     3.4920 cd         1 0JI       0.175500
     10 C12        -47.0220     8.0050     4.6380 c          1 0JI       0.636500
     11 N07        -45.4810     5.7400     2.2640 na         1 0JI       0.167000
     12 N10        -45.9750     7.7910     2.2570 nd         1 0JI      -0.328000
     13 N11        -45.4490     6.8610     1.5070 nc         1 0JI      -0.255800
     14 O13        -47.3220     7.4130     5.6680 o          1 0JI      -0.708000
     15 O14        -47.2490     9.2020     4.5010 o          1 0JI      -0.708000
     16 H1         -45.6820     3.9160     4.3030 hc         1 0JI       0.047033
     17 H2         -45.7930     5.1800     5.5260 hc         1 0JI       0.047033
     18 H3         -47.2620     4.6010     4.7160 hc         1 0JI       0.047033
     19 H6         -42.9770     5.1320     1.5670 ha         1 0JI       0.133500
     20 H7         -47.0220     3.6140     1.7590 ha         1 0JI       0.133500
     21 H8         -46.2490     1.4440     0.8170 ha         1 0JI       0.105500
     22 H4         -43.8440     1.1150     0.2490 ha         1 0JI       0.102000
     23 H5         -42.2110     2.9600     0.6220 ha         1 0JI       0.105500
@<TRIPOS>BOND
     1     1     8 1   
     2     1    16 1   
     3     1    17 1   
     4     1    18 1   
     5     2     3 ar  
     6     2     7 ar  
     7     2    22 1   
     8     3     4 ar  
     9     3    23 1   
    10     4     5 ar  
    11     4    19 1   
    12     5     6 ar  
    13     5    11 1   
    14     6     7 ar  
    15     6    20 1   
    16     7    21 1   
    17     8     9 2   
    18     8    11 1   
    19     9    10 1   
    20     9    12 1   
    21    10    14 1   
    22    10    15 1   
    23    11    13 1   
    24    12    13 2   
@<TRIPOS>SUBSTRUCTURE
     1 0JI         1 TEMP              0 ****  ****    0 ROOT
