@<TRIPOS>MOLECULE
0JJ
   45    49     1     0     0
SMALL
abcg2


@<TRIPOS>ATOM
      1 C7          14.5600    10.8000    60.5010 c3         1 0JJ      -0.125400
      2 C5          15.6500    11.0300    59.5030 cc         1 0JJ       0.304300
      3 C6          16.4340    12.2160    59.4290 cc         1 0JJ      -0.154000
      4 N2          15.9470    10.1070    58.6070 nd         1 0JJ      -0.513100
      5 S1          17.1890    10.6150    57.6330 ss         1 0JJ       0.398100
      6 C4          17.3560    12.1420    58.4160 cd         1 0JJ      -0.308500
      7 C3          18.3500    13.1270    58.0010 cd         1 0JJ       0.419500
      8 C1          18.4700    14.3920    58.6700 cd         1 0JJ      -0.136000
      9 C2          19.4080    15.2890    58.2700 cc         1 0JJ      -0.019000
     10 N1          19.1100    12.7710    56.9930 nc         1 0JJ      -0.465800
     11 N3          20.0380    13.6700    56.6290 na         1 0JJ       0.119000
     12 C8          20.2470    14.9180    57.1960 cc         1 0JJ      -0.138000
     13 N4          21.2480    15.5150    56.5730 nd         1 0JJ      -0.064000
     14 N5          21.6950    14.6460    55.6110 nd         1 0JJ      -0.358700
     15 C9          20.9720    13.5470    55.6390 cc         1 0JJ       0.323800
     16 C10         21.1270    12.3410    54.7680 c3         1 0JJ       0.217500
     17 N6          21.1470    11.0940    55.5070 nu         1 0JJ      -0.929200
     18 C11         22.0540    10.8290    56.4840 ca         1 0JJ       0.381000
     19 C12         23.2740    11.4780    56.6290 ca         1 0JJ      -0.267000
     20 C13         24.1350    11.0860    57.6600 ca         1 0JJ       0.399900
     21 N7          23.8910    10.1410    58.5530 nb         1 0JJ      -0.701000
     22 C15         22.6910     9.5040    58.4490 ca         1 0JJ       0.299000
     23 C16         22.3510     8.5050    59.3890 ca         1 0JJ      -0.166000
     24 C14         21.7460     9.8060    57.4380 ca         1 0JJ       0.137000
     25 N8          20.5480     9.1790    57.3550 nb         1 0JJ      -0.644000
     26 C18         20.2480     8.2640    58.2400 ca         1 0JJ       0.325900
     27 C17         21.1280     7.8850    59.2890 ca         1 0JJ       0.099100
     28 O1          20.6560     6.9240    60.1130 os         1 0JJ      -0.340100
     29 C19         21.4980     6.4870    61.1820 c3         1 0JJ       0.145900
     30 H1          14.1010     9.8260    60.3460 hc         1 0JJ       0.056367
     31 H2          14.9570    10.8470    61.5180 hc         1 0JJ       0.056367
     32 H3          13.7930    11.5720    60.4140 hc         1 0JJ       0.056367
     33 H4          16.3110    13.0580    60.0930 ha         1 0JJ       0.146000
     34 H5          17.8050    14.6210    59.4880 ha         1 0JJ       0.140000
     35 H6          19.5300    16.2530    58.7420 ha         1 0JJ       0.155000
     36 H7          20.2950    12.2850    54.0640 h1         1 0JJ       0.083700
     37 H8          22.0390    12.4710    54.1850 h1         1 0JJ       0.083700
     38 H9          20.2530    10.6470    55.6510 hn         1 0JJ       0.511000
     39 H10         23.5750    12.2710    55.9600 ha         1 0JJ       0.136000
     40 H11         25.0900    11.5960    57.7530 h4         1 0JJ       0.018100
     41 H12         23.0630     8.2650    60.1650 ha         1 0JJ       0.140000
     42 H13         19.2800     7.7800    58.1700 h4         1 0JJ       0.035100
     43 H14         20.9360     5.7210    61.7100 h1         1 0JJ       0.047033
     44 H15         22.4280     6.0650    60.7940 h1         1 0JJ       0.047033
     45 H16         21.7250     7.3140    61.8590 h1         1 0JJ       0.047033
@<TRIPOS>BOND
     1     1     2 1   
     2     1    30 1   
     3     1    31 1   
     4     1    32 1   
     5     2     3 1   
     6     2     4 2   
     7     3     6 2   
     8     3    33 1   
     9     4     5 1   
    10     5     6 1   
    11     6     7 1   
    12     7     8 1   
    13     7    10 2   
    14     8     9 2   
    15     8    34 1   
    16     9    12 1   
    17     9    35 1   
    18    10    11 1   
    19    11    12 1   
    20    11    15 1   
    21    12    13 2   
    22    13    14 1   
    23    14    15 2   
    24    15    16 1   
    25    16    17 1   
    26    16    36 1   
    27    16    37 1   
    28    17    18 1   
    29    17    38 1   
    30    18    19 ar  
    31    18    24 ar  
    32    19    20 ar  
    33    19    39 1   
    34    20    21 ar  
    35    20    40 1   
    36    21    22 ar  
    37    22    23 ar  
    38    22    24 ar  
    39    23    27 ar  
    40    23    41 1   
    41    24    25 ar  
    42    25    26 ar  
    43    26    27 ar  
    44    26    42 1   
    45    27    28 1   
    46    28    29 1   
    47    29    43 1   
    48    29    44 1   
    49    29    45 1   
@<TRIPOS>SUBSTRUCTURE
     1 0JJ         1 TEMP              0 ****  ****    0 ROOT
