@<TRIPOS>MOLECULE
0JJ
   45    49     1     0     0
SMALL
No Charge or Current Charge


@<TRIPOS>ATOM
      1 C7          14.3710    10.7870    60.3330 c3         1 0JJ      -0.125400
      2 C5          15.4480    10.9510    59.3010 cc         1 0JJ       0.304300
      3 C6          16.3250    12.0630    59.3570 cc         1 0JJ      -0.154000
      4 N2          15.6080    10.0750    58.3240 nd         1 0JJ      -0.513100
      5 S1          16.9020    10.5730    57.3610 ss         1 0JJ       0.398100
      6 C4          17.2240    12.0130    58.3260 cd         1 0JJ      -0.308500
      7 C3          18.2770    12.9620    58.0610 cd         1 0JJ       0.419500
      8 C1          18.4530    14.1030    58.9440 cd         1 0JJ      -0.136000
      9 C2          19.4780    14.9810    58.6860 cc         1 0JJ      -0.019000
     10 N1          19.0320    12.6900    56.9850 nc         1 0JJ      -0.465800
     11 N3          20.0490    13.6110    56.7930 na         1 0JJ       0.119000
     12 C8          20.2990    14.6990    57.5660 cc         1 0JJ      -0.138000
     13 N4          21.3500    15.3280    57.0760 nd         1 0JJ      -0.064000
     14 N5          21.7900    14.6130    55.9660 nd         1 0JJ      -0.358700
     15 C9          20.9920    13.5600    55.7960 cc         1 0JJ       0.323800
     16 C10         21.1180    12.4930    54.7200 c3         1 0JJ       0.217500
     17 N6          21.2630    11.1090    55.2580 nu         1 0JJ      -0.929200
     18 C11         22.1790    10.7250    56.2460 ca         1 0JJ       0.381000
     19 C12         23.4860    11.2140    56.2100 ca         1 0JJ      -0.267000
     20 C13         24.3770    10.8350    57.2140 ca         1 0JJ       0.399900
     21 N7          24.0310    10.0140    58.2260 nb         1 0JJ      -0.701000
     22 C15         22.7660     9.5310    58.2700 ca         1 0JJ       0.299000
     23 C16         22.4030     8.6780    59.3280 ca         1 0JJ      -0.166000
     24 C14         21.7760     9.8500    57.2900 ca         1 0JJ       0.137000
     25 N8          20.5000     9.3530    57.3450 nb         1 0JJ      -0.644000
     26 C18         20.1760     8.5350    58.3760 ca         1 0JJ       0.325900
     27 C17         21.0880     8.1690    59.3890 ca         1 0JJ       0.099100
     28 O1          20.6620     7.3260    60.4030 os         1 0JJ      -0.340100
     29 C19         21.5310     6.9100    61.4720 c3         1 0JJ       0.145900
     30 H1          13.7750     9.8840    60.1510 hc         1 0JJ       0.056367
     31 H2          14.8060    10.7070    61.3360 hc         1 0JJ       0.056367
     32 H3          13.6910    11.6470    60.3240 hc         1 0JJ       0.056367
     33 H4          16.2510    12.8170    60.1330 ha         1 0JJ       0.146000
     34 H5          17.8090    14.2740    59.7950 ha         1 0JJ       0.140000
     35 H6          19.6690    15.8510    59.3090 ha         1 0JJ       0.155000
     36 H7          20.2340    12.5550    54.0710 h1         1 0JJ       0.083700
     37 H8          21.9860    12.7440    54.0960 h1         1 0JJ       0.083700
     38 H9          20.3740    10.6220    55.4150 hn         1 0JJ       0.511000
     39 H10         23.8170    11.8760    55.4180 ha         1 0JJ       0.136000
     40 H11         25.4040    11.2010    57.2130 h4         1 0JJ       0.018100
     41 H12         23.1460     8.4290    60.0780 ha         1 0JJ       0.140000
     42 H13         19.1540     8.1590    58.3910 h4         1 0JJ       0.035100
     43 H14         20.9930     6.2480    62.1630 h1         1 0JJ       0.047033
     44 H15         22.3960     6.3600    61.0810 h1         1 0JJ       0.047033
     45 H16         21.8900     7.7760    62.0430 h1         1 0JJ       0.047033
@<TRIPOS>BOND
     1     1     2 1   
     2     1    30 1   
     3     1    31 1   
     4     1    32 1   
     5     2     3 1   
     6     2     4 2   
     7     3     6 2   
     8     3    33 1   
     9     4     5 1   
    10     5     6 1   
    11     6     7 1   
    12     7     8 1   
    13     7    10 2   
    14     8     9 2   
    15     8    34 1   
    16     9    12 1   
    17     9    35 1   
    18    10    11 1   
    19    11    12 1   
    20    11    15 1   
    21    12    13 2   
    22    13    14 1   
    23    14    15 2   
    24    15    16 1   
    25    16    17 1   
    26    16    36 1   
    27    16    37 1   
    28    17    18 1   
    29    17    38 1   
    30    18    19 ar  
    31    18    24 ar  
    32    19    20 ar  
    33    19    39 1   
    34    20    21 ar  
    35    20    40 1   
    36    21    22 ar  
    37    22    23 ar  
    38    22    24 ar  
    39    23    27 ar  
    40    23    41 1   
    41    24    25 ar  
    42    25    26 ar  
    43    26    27 ar  
    44    26    42 1   
    45    27    28 1   
    46    28    29 1   
    47    29    43 1   
    48    29    44 1   
    49    29    45 1   
@<TRIPOS>SUBSTRUCTURE
     1 0JJ         1 TEMP              0 ****  ****    0 ROOT
