@<TRIPOS>MOLECULE
0JK
   44    48     1     0     0
SMALL
abcg2


@<TRIPOS>ATOM
      1 C18         -3.3660     0.7020    -0.8130 ca         1 0JK      -0.053000
      2 C17         -4.2720    -0.1710    -0.1730 ca         1 0JK      -0.092000
      3 C21         -5.5970     0.2000     0.1430 ca         1 0JK      -0.053000
      4 C20         -6.4100    -0.7040     0.7650 ca         1 0JK      -0.170000
      5 C19         -5.8930    -1.9810     1.0690 ca         1 0JK       0.359900
      6 N5          -4.6750    -2.3620     0.7920 nb         1 0JK      -0.662000
      7 C16         -3.8540    -1.4790     0.1760 ca         1 0JK       0.279000
      8 C15         -2.5330    -1.8760    -0.1360 ca         1 0JK      -0.086000
      9 C14         -1.6790    -1.0110    -0.7600 ca         1 0JK      -0.085000
     10 C13         -2.0900     0.2970    -1.1060 ca         1 0JK      -0.123300
     11 C12         -1.1250     1.2470    -1.7610 c3         1 0JK       0.126900
     12 N4          -0.3040     1.9290    -0.7690 na         1 0JK       0.176800
     13 C10          0.8620     1.5600    -0.2010 cc         1 0JK      -0.270600
     14 C11          1.7890     0.4760    -0.5420 c          1 0JK       0.619600
     15 O1           1.6830    -0.2180    -1.5390 o          1 0JK      -0.545000
     16 N3          -0.7510     3.0280    -0.2010 nc         1 0JK      -0.191800
     17 N2           0.0930     3.4070     0.7070 nd         1 0JK      -0.351000
     18 C9           1.1010     2.5230     0.7420 cd         1 0JK       0.236300
     19 C8           2.3300     2.4940     1.5700 c6         1 0JK      -0.110700
     20 C7           2.7720     1.0380     1.6650 c6         1 0JK       0.110000
     21 N1           2.8030     0.3700     0.3550 n          1 0JK      -0.236400
     22 C4           3.7800    -0.6430     0.1510 ca         1 0JK      -0.054000
     23 C3           4.7840    -0.4570    -0.7900 ca         1 0JK      -0.101500
     24 C2           5.7470    -1.4380    -0.9750 ca         1 0JK      -0.103500
     25 C1           5.7130    -2.6020    -0.2170 ca         1 0JK      -0.105000
     26 C6           4.7110    -2.7820     0.7270 ca         1 0JK      -0.103500
     27 C5           3.7400    -1.8070     0.9090 ca         1 0JK      -0.101500
     28 H1          -3.6980     1.7000    -1.0750 ha         1 0JK       0.123000
     29 H2          -5.9520     1.1920    -0.1090 ha         1 0JK       0.122000
     30 H3          -7.4310    -0.4620     1.0270 ha         1 0JK       0.126000
     31 H4          -6.5300    -2.7080     1.5620 h4         1 0JK       0.020100
     32 H5          -2.2180    -2.8780     0.1270 ha         1 0JK       0.135000
     33 H6          -0.6730    -1.3330    -1.0020 ha         1 0JK       0.134000
     34 H7          -0.4580     0.7330    -2.4480 h1         1 0JK       0.089700
     35 H8          -1.6520     2.0200    -2.3160 h1         1 0JK       0.089700
     36 H9           3.1120     3.1070     1.1140 hc         1 0JK       0.074700
     37 H10          2.1540     2.8800     2.5740 hc         1 0JK       0.074700
     38 H11          3.7750     0.9800     2.0830 h1         1 0JK       0.055200
     39 H12          2.1000     0.4980     2.3390 h1         1 0JK       0.055200
     40 H13          4.8140     0.4570    -1.3700 ha         1 0JK       0.121500
     41 H14          6.5270    -1.2920    -1.7100 ha         1 0JK       0.117000
     42 H15          6.4660    -3.3650    -0.3610 ha         1 0JK       0.116000
     43 H16          4.6790    -3.6870     1.3200 ha         1 0JK       0.117000
     44 H17          2.9530    -1.9530     1.6380 ha         1 0JK       0.121500
@<TRIPOS>BOND
     1     1     2 ar  
     2     1    10 ar  
     3     1    28 1   
     4     2     3 ar  
     5     2     7 ar  
     6     3     4 ar  
     7     3    29 1   
     8     4     5 ar  
     9     4    30 1   
    10     5     6 ar  
    11     5    31 1   
    12     6     7 ar  
    13     7     8 ar  
    14     8     9 ar  
    15     8    32 1   
    16     9    10 ar  
    17     9    33 1   
    18    10    11 1   
    19    11    12 1   
    20    11    34 1   
    21    11    35 1   
    22    12    13 1   
    23    12    16 1   
    24    13    14 1   
    25    13    18 2   
    26    14    15 2   
    27    14    21 1   
    28    16    17 2   
    29    17    18 1   
    30    18    19 1   
    31    19    20 1   
    32    19    36 1   
    33    19    37 1   
    34    20    21 1   
    35    20    38 1   
    36    20    39 1   
    37    21    22 1   
    38    22    23 ar  
    39    22    27 ar  
    40    23    24 ar  
    41    23    40 1   
    42    24    25 ar  
    43    24    41 1   
    44    25    26 ar  
    45    25    42 1   
    46    26    27 ar  
    47    26    43 1   
    48    27    44 1   
@<TRIPOS>SUBSTRUCTURE
     1 0JK         1 TEMP              0 ****  ****    0 ROOT
