@<TRIPOS>MOLECULE
0JK
   44    48     1     0     0
SMALL
No Charge or Current Charge


@<TRIPOS>ATOM
      1 C18         -2.9230     0.7010    -0.4530 ca         1 0JK      -0.053000
      2 C17         -3.7430    -0.3350     0.0330 ca         1 0JK      -0.092000
      3 C21         -4.6270    -0.0930     1.0990 ca         1 0JK      -0.053000
      4 C20         -5.4250    -1.1530     1.5540 ca         1 0JK      -0.170000
      5 C19         -5.3150    -2.4060     0.9320 ca         1 0JK       0.359900
      6 N5          -4.4660    -2.6450    -0.0950 nb         1 0JK      -0.662000
      7 C16         -3.6890    -1.6300    -0.5440 ca         1 0JK       0.279000
      8 C15         -2.7990    -1.8510    -1.6100 ca         1 0JK      -0.086000
      9 C14         -1.9790    -0.8180    -2.0960 ca         1 0JK      -0.085000
     10 C13         -2.0330     0.4650    -1.5190 ca         1 0JK      -0.123300
     11 C12         -1.1350     1.5840    -2.0470 c3         1 0JK       0.126900
     12 N4          -0.3560     2.2620    -0.9970 na         1 0JK       0.176800
     13 C10          0.7530     1.7970    -0.3350 cc         1 0JK      -0.270600
     14 C11          1.5490     0.5650    -0.4540 c          1 0JK       0.619600
     15 O1           1.3300    -0.2720    -1.3200 o          1 0JK      -0.545000
     16 N3          -0.7120     3.5020    -0.5460 nc         1 0JK      -0.191800
     17 N2           0.1540     3.8320     0.3780 nd         1 0JK      -0.351000
     18 C9           1.0570     2.8040     0.5210 cd         1 0JK       0.236300
     19 C8           2.2410     2.7550     1.4360 c6         1 0JK      -0.110700
     20 C7           2.5600     1.2790     1.7400 c6         1 0JK       0.110000
     21 N1           2.5900     0.4320     0.5130 n          1 0JK      -0.236400
     22 C4           3.5830    -0.6180     0.4660 ca         1 0JK      -0.054000
     23 C3           4.1220    -1.0450    -0.7680 ca         1 0JK      -0.101500
     24 C2           4.9690    -2.1640    -0.8360 ca         1 0JK      -0.103500
     25 C1           5.2470    -2.9080     0.3200 ca         1 0JK      -0.105000
     26 C6           4.6560    -2.5430     1.5400 ca         1 0JK      -0.103500
     27 C5           3.8090    -1.4230     1.6060 ca         1 0JK      -0.101500
     28 H1          -2.9790     1.6890    -0.0010 ha         1 0JK       0.123000
     29 H2          -4.6930     0.8880     1.5650 ha         1 0JK       0.122000
     30 H3          -6.1220    -1.0130     2.3750 ha         1 0JK       0.126000
     31 H4          -5.9230    -3.2460     1.2650 h4         1 0JK       0.020100
     32 H5          -2.7440    -2.8370    -2.0630 ha         1 0JK       0.135000
     33 H6          -1.2970    -1.0210    -2.9200 ha         1 0JK       0.134000
     34 H7          -0.4320     1.1860    -2.7880 h1         1 0JK       0.089700
     35 H8          -1.7560     2.3300    -2.5580 h1         1 0JK       0.089700
     36 H9           3.1060     3.2320     0.9550 hc         1 0JK       0.074700
     37 H10          2.0480     3.3020     2.3680 hc         1 0JK       0.074700
     38 H11          3.5260     1.2220     2.2600 h1         1 0JK       0.055200
     39 H12          1.7940     0.8760     2.4190 h1         1 0JK       0.055200
     40 H13          3.9090    -0.4900    -1.6790 ha         1 0JK       0.121500
     41 H14          5.4020    -2.4600    -1.7900 ha         1 0JK       0.117000
     42 H15          5.8990    -3.7770     0.2680 ha         1 0JK       0.116000
     43 H16          4.8400    -3.1380     2.4320 ha         1 0JK       0.117000
     44 H17          3.3320    -1.1860     2.5540 ha         1 0JK       0.121500
@<TRIPOS>BOND
     1     1     2 ar  
     2     1    10 ar  
     3     1    28 1   
     4     2     3 ar  
     5     2     7 ar  
     6     3     4 ar  
     7     3    29 1   
     8     4     5 ar  
     9     4    30 1   
    10     5     6 ar  
    11     5    31 1   
    12     6     7 ar  
    13     7     8 ar  
    14     8     9 ar  
    15     8    32 1   
    16     9    10 ar  
    17     9    33 1   
    18    10    11 1   
    19    11    12 1   
    20    11    34 1   
    21    11    35 1   
    22    12    13 1   
    23    12    16 1   
    24    13    14 1   
    25    13    18 2   
    26    14    15 2   
    27    14    21 1   
    28    16    17 2   
    29    17    18 1   
    30    18    19 1   
    31    19    20 1   
    32    19    36 1   
    33    19    37 1   
    34    20    21 1   
    35    20    38 1   
    36    20    39 1   
    37    21    22 1   
    38    22    23 ar  
    39    22    27 ar  
    40    23    24 ar  
    41    23    40 1   
    42    24    25 ar  
    43    24    41 1   
    44    25    26 ar  
    45    25    42 1   
    46    26    27 ar  
    47    26    43 1   
    48    27    44 1   
@<TRIPOS>SUBSTRUCTURE
     1 0JK         1 TEMP              0 ****  ****    0 ROOT
