@<TRIPOS>MOLECULE
0JL
   55    59     1     0     0
SMALL
No Charge or Current Charge


@<TRIPOS>ATOM
      1 CBF         -5.1260     4.6170    -1.9000 c3         1 0JL      -0.127400
      2 CBE         -4.4600     3.6200    -0.9970 cc         1 0JL       0.329300
      3 CBB         -4.5360     2.2370    -1.2910 cc         1 0JL      -0.234000
      4 NBD         -3.7980     4.0020     0.0820 nd         1 0JL      -0.555100
      5 S           -3.1900     2.6250     0.8500 ss         1 0JL       0.428100
      6 CBA         -3.8580     1.5050    -0.3580 cd         1 0JL      -0.116400
      7 NAZ         -3.7270     0.1010    -0.2380 n          1 0JL      -0.155200
      8 CAT         -2.6450    -0.5040     0.4870 c          1 0JL       0.601600
      9 CAS         -2.6720    -1.9690     0.5130 cc         1 0JL      -0.271600
     10 OBG         -1.7470     0.1230     1.0320 o          1 0JL      -0.536000
     11 CAY         -4.6940    -0.7060    -0.8720 cc         1 0JL      -0.064400
     12 CAX         -4.6680    -2.0870    -0.8260 cd         1 0JL      -0.302800
     13 CAW         -3.6150    -2.7100    -0.1040 cd         1 0JL       0.315800
     14 NAV         -3.3910    -4.0510     0.0720 nd         1 0JL      -0.350000
     15 NAU         -2.3050    -4.1860     0.7910 nc         1 0JL      -0.163800
     16 NAR         -1.8500    -2.9210     1.0730 na         1 0JL       0.166800
     17 CAP         -0.6110    -2.6970     1.8580 c3         1 0JL       0.147600
     18 CAQ         -0.3170    -3.8060     2.8970 c3         1 0JL      -0.094100
     19 CAO          0.6020    -2.4510     0.9570 ca         1 0JL      -0.113300
     20 CAI          1.3330    -1.2530     1.0680 ca         1 0JL      -0.062000
     21 CAH          2.4450    -1.0150     0.2380 ca         1 0JL      -0.048000
     22 CAG          3.1660     0.1890     0.3560 ca         1 0JL      -0.112000
     23 CAN          1.0020    -3.4100     0.0050 ca         1 0JL      -0.103000
     24 CAM          2.1130    -3.1720    -0.8220 ca         1 0JL      -0.070000
     25 CAL          2.8500    -1.9790    -0.7220 ca         1 0JL       0.244000
     26 NAK          3.9170    -1.7750    -1.5330 nb         1 0JL      -0.636000
     27 CAJ          4.6080    -0.6140    -1.4150 ca         1 0JL       0.294900
     28 CAF          4.2690     0.4000    -0.4830 ca         1 0JL       0.091100
     29 OAE          4.9720     1.5850    -0.3610 os         1 0JL      -0.329100
     30 CAD          6.1170     1.8790    -1.1880 c3         1 0JL       0.163600
     31 CAC          6.6670     3.2690    -0.7970 c3         1 0JL       0.157600
     32 OAB          7.2820     3.1810     0.5040 os         1 0JL      -0.442000
     33 CAA          7.8310     4.4180     0.9890 c3         1 0JL       0.144900
     34 H1          -6.2050     4.4320    -1.9500 hc         1 0JL       0.053367
     35 H2          -4.9750     5.6430    -1.5460 hc         1 0JL       0.053367
     36 H3          -4.7220     4.5480    -2.9160 hc         1 0JL       0.053367
     37 H4          -5.0590     1.8530    -2.1600 ha         1 0JL       0.144000
     38 H6          -5.4700    -0.1370    -1.3710 h4         1 0JL       0.214000
     39 H7          -5.4290    -2.6870    -1.3170 ha         1 0JL       0.222000
     40 H8          -0.7860    -1.7840     2.4410 h1         1 0JL       0.087700
     41 H9          -0.1040    -4.7640     2.4090 hc         1 0JL       0.058033
     42 H10          0.5530    -3.5350     3.5060 hc         1 0JL       0.058033
     43 H11         -1.1730    -3.9420     3.5700 hc         1 0JL       0.058033
     44 H12          1.0350    -0.5010     1.7960 ha         1 0JL       0.128000
     45 H13          2.8790     0.9460     1.0810 ha         1 0JL       0.138000
     46 H14          0.4530    -4.3450    -0.0980 ha         1 0JL       0.128000
     47 H15          2.4090    -3.9220    -1.5510 ha         1 0JL       0.134000
     48 H16          5.4540    -0.5050    -2.0910 h4         1 0JL       0.020100
     49 H17          6.9040     1.1250    -1.0560 h1         1 0JL       0.045200
     50 H18          5.8280     1.8970    -2.2470 h1         1 0JL       0.045200
     51 H19          7.4050     3.5820    -1.5470 h1         1 0JL       0.034700
     52 H20          5.8470     4.0000    -0.7980 h1         1 0JL       0.034700
     53 H21          8.6100     4.7910     0.3120 h1         1 0JL       0.030367
     54 H22          7.0490     5.1830     1.0770 h1         1 0JL       0.030367
     55 H23          8.2800     4.2730     1.9800 h1         1 0JL       0.030367
@<TRIPOS>BOND
     1     1     2 1   
     2     1    34 1   
     3     1    35 1   
     4     1    36 1   
     5     2     3 1   
     6     2     4 2   
     7     3     6 2   
     8     3    37 1   
     9     4     5 1   
    10     5     6 1   
    11     6     7 1   
    12     7     8 1   
    13     7    11 1   
    14     8     9 1   
    15     8    10 2   
    16     9    13 2   
    17     9    16 1   
    18    11    12 2   
    19    11    38 1   
    20    12    13 1   
    21    12    39 1   
    22    13    14 1   
    23    14    15 2   
    24    15    16 1   
    25    16    17 1   
    26    17    18 1   
    27    17    19 1   
    28    17    40 1   
    29    18    41 1   
    30    18    42 1   
    31    18    43 1   
    32    19    20 ar  
    33    19    23 ar  
    34    20    21 ar  
    35    20    44 1   
    36    21    22 ar  
    37    21    25 ar  
    38    22    28 ar  
    39    22    45 1   
    40    23    24 ar  
    41    23    46 1   
    42    24    25 ar  
    43    24    47 1   
    44    25    26 ar  
    45    26    27 ar  
    46    27    28 ar  
    47    27    48 1   
    48    28    29 1   
    49    29    30 1   
    50    30    31 1   
    51    30    49 1   
    52    30    50 1   
    53    31    32 1   
    54    31    51 1   
    55    31    52 1   
    56    32    33 1   
    57    33    53 1   
    58    33    54 1   
    59    33    55 1   
@<TRIPOS>SUBSTRUCTURE
     1 0JL         1 TEMP              0 ****  ****    0 ROOT
