@<TRIPOS>MOLECULE
0JL
   55    59     1     0     0
SMALL
bcc


@<TRIPOS>ATOM
      1 CBF         -4.9970     4.5740    -1.7780 c3         1 0JL      -0.127400
      2 CBE         -4.2240     3.5170    -1.0630 cc         1 0JL       0.394600
      3 CBB         -4.4900     2.1280    -1.1980 cc         1 0JL      -0.317300
      4 NBD         -3.2380     3.8250    -0.2640 nd         1 0JL      -0.555100
      5 S           -2.5500     2.4710     0.3860 ss         1 0JL       0.283200
      6 CBA         -3.6250     1.3950    -0.4380 cd         1 0JL       0.028500
      7 NAZ         -3.5780     0.0000    -0.3170 n          1 0JL      -0.222200
      8 CAT         -2.5810    -0.5450     0.4910 c          1 0JL       0.744100
      9 CAS         -2.6100    -1.9760     0.5090 cc         1 0JL      -0.286200
     10 OBG         -1.8000     0.1710     1.0960 o          1 0JL      -0.611500
     11 CAY         -4.5210    -0.7700    -0.9910 cc         1 0JL      -0.014400
     12 CAX         -4.5460    -2.1120    -0.9440 cd         1 0JL      -0.252800
     13 CAW         -3.5400    -2.7380    -0.1610 cd         1 0JL       0.381100
     14 NAV         -3.2820    -4.0380     0.0920 nd         1 0JL      -0.350000
     15 NAU         -2.2540    -4.0940     0.8700 nc         1 0JL      -0.163800
     16 NAR         -1.8310    -2.8800     1.1450 na         1 0JL       0.145400
     17 CAP         -0.6150    -2.6500     1.9320 c3         1 0JL       0.118300
     18 CAQ         -0.3240    -3.8290     2.8470 c3         1 0JL      -0.094100
     19 CAO          0.5360    -2.3420     1.0040 ca         1 0JL      -0.113300
     20 CAI          1.2450    -1.1830     1.1510 ca         1 0JL      -0.080000
     21 CAH          2.3530    -0.9010     0.3170 ca         1 0JL      -0.113300
     22 CAG          3.1100     0.2760     0.4340 ca         1 0JL      -0.130000
     23 CAN          0.9040    -3.2700    -0.0020 ca         1 0JL      -0.121000
     24 CAM          1.9640    -3.0220    -0.8260 ca         1 0JL      -0.153300
     25 CAL          2.7160    -1.8320    -0.6860 ca         1 0JL       0.374600
     26 NAK          3.7610    -1.6130    -1.5110 nb         1 0JL      -0.636000
     27 CAJ          4.4540    -0.5130    -1.3840 ca         1 0JL       0.360200
     28 CAF          4.1700     0.4830    -0.4150 ca         1 0JL       0.025800
     29 OAE          4.8740     1.6170    -0.2820 os         1 0JL      -0.305900
     30 CAD          5.9920     1.8470    -1.1270 c3         1 0JL       0.140400
     31 CAC          6.5820     3.1870    -0.7770 c3         1 0JL       0.134400
     32 OAB          7.1010     3.1490     0.5250 os         1 0JL      -0.395600
     33 CAA          7.6870     4.3670     0.9060 c3         1 0JL       0.121700
     34 H1          -6.0630     4.4830    -1.5710 hc         1 0JL       0.053367
     35 H2          -4.6680     5.5660    -1.4770 hc         1 0JL       0.053367
     36 H3          -4.8680     4.4820    -2.8580 hc         1 0JL       0.053367
     37 H4          -5.2790     1.7430    -1.8240 ha         1 0JL       0.162000
     38 H6          -5.2530    -0.2230    -1.5590 h4         1 0JL       0.164000
     39 H7          -5.3010    -2.6670    -1.4780 ha         1 0JL       0.172000
     40 H8          -0.8170    -1.7750     2.5490 h1         1 0JL       0.087700
     41 H9          -0.0840    -4.7360     2.2970 hc         1 0JL       0.058033
     42 H10          0.5350    -3.5720     3.4650 hc         1 0JL       0.058033
     43 H11         -1.1660    -4.0310     3.5070 hc         1 0JL       0.058033
     44 H12          0.9650    -0.4630     1.9110 ha         1 0JL       0.146000
     45 H13          2.8600     1.0140     1.1880 ha         1 0JL       0.156000
     46 H14          0.3420    -4.1880    -0.1220 ha         1 0JL       0.146000
     47 H15          2.2480    -3.7290    -1.5950 ha         1 0JL       0.152000
     48 H16          5.2820    -0.3920    -2.0730 h4         1 0JL       0.020100
     49 H17          6.7410     1.0570    -1.0020 h1         1 0JL       0.045200
     50 H18          5.6900     1.8650    -2.1790 h1         1 0JL       0.045200
     51 H19          7.3660     3.4060    -1.5150 h1         1 0JL       0.034700
     52 H20          5.8180     3.9700    -0.8820 h1         1 0JL       0.034700
     53 H21          8.5210     4.6460     0.2490 h1         1 0JL       0.030367
     54 H22          6.9660     5.1930     0.9000 h1         1 0JL       0.030367
     55 H23          8.0710     4.2530     1.9190 h1         1 0JL       0.030367
@<TRIPOS>BOND
     1     1     2 1   
     2     1    34 1   
     3     1    35 1   
     4     1    36 1   
     5     2     3 1   
     6     2     4 2   
     7     3     6 2   
     8     3    37 1   
     9     4     5 1   
    10     5     6 1   
    11     6     7 1   
    12     7     8 1   
    13     7    11 1   
    14     8     9 1   
    15     8    10 2   
    16     9    13 2   
    17     9    16 1   
    18    11    12 2   
    19    11    38 1   
    20    12    13 1   
    21    12    39 1   
    22    13    14 1   
    23    14    15 2   
    24    15    16 1   
    25    16    17 1   
    26    17    18 1   
    27    17    19 1   
    28    17    40 1   
    29    18    41 1   
    30    18    42 1   
    31    18    43 1   
    32    19    20 ar  
    33    19    23 ar  
    34    20    21 ar  
    35    20    44 1   
    36    21    22 ar  
    37    21    25 ar  
    38    22    28 ar  
    39    22    45 1   
    40    23    24 ar  
    41    23    46 1   
    42    24    25 ar  
    43    24    47 1   
    44    25    26 ar  
    45    26    27 ar  
    46    27    28 ar  
    47    27    48 1   
    48    28    29 1   
    49    29    30 1   
    50    30    31 1   
    51    30    49 1   
    52    30    50 1   
    53    31    32 1   
    54    31    51 1   
    55    31    52 1   
    56    32    33 1   
    57    33    53 1   
    58    33    54 1   
    59    33    55 1   
@<TRIPOS>SUBSTRUCTURE
     1 0JL         1 TEMP              0 ****  ****    0 ROOT
