@<TRIPOS>MOLECULE
0JM
   44    46     1     0     0
SMALL
bcc


@<TRIPOS>ATOM
      1 O5          -5.5950    -1.5380    -0.3010 o          1 0JM      -0.825800
      2 C16         -4.8430    -0.5740    -0.5600 c          1 0JM       0.944600
      3 O1          -5.1510     0.4830    -1.1310 o          1 0JM      -0.825800
      4 C13         -3.3710    -0.7640    -0.1270 c5         1 0JM       0.052500
      5 C12         -2.6300    -1.7440    -1.0830 c5         1 0JM       0.103100
      6 C14         -3.0000    -1.5360    -2.5500 c3         1 0JM      -0.069600
      7 C15         -2.8380    -3.1970    -0.6850 c3         1 0JM      -0.069600
      8 S1          -0.8500    -1.3150    -0.8490 ss         1 0JM      -0.515200
      9 N2          -2.6020     0.4660    -0.0430 nq         1 0JM      -0.657600
     10 C11         -1.3200     0.4400    -0.7270 cy         1 0JM       0.263600
     11 C10         -1.9780     0.8120     1.2190 cy         1 0JM       0.357300
     12 O4          -2.6690     1.8060     1.9010 oh         1 0JM      -0.565800
     13 C9          -0.6940     1.1950     0.4580 cy         1 0JM       0.073700
     14 N1           0.5530     0.7580     0.9940 ns         1 0JM      -0.552900
     15 C8           1.7190     1.4110     0.8140 c          1 0JM       0.719100
     16 O6           1.8010     2.4530     0.1810 o          1 0JM      -0.631100
     17 C7           2.9340     0.7510     1.4330 c3         1 0JM      -0.258400
     18 C17          3.3980     1.6010     2.6580 c          1 0JM       0.951600
     19 O2           4.6080     1.5870     2.9250 o          1 0JM      -0.820300
     20 O3           2.4840     2.1730     3.2770 o          1 0JM      -0.820300
     21 C1           3.9850     0.5110     0.3880 ca         1 0JM       0.006700
     22 C6           4.1950    -0.7730    -0.1060 ca         1 0JM      -0.104500
     23 C2           4.7440     1.5550    -0.1420 ca         1 0JM      -0.104500
     24 C3           5.6820     1.3150    -1.1340 ca         1 0JM      -0.149500
     25 C4           5.8840     0.0270    -1.6170 ca         1 0JM      -0.162000
     26 C5           5.1370    -1.0200    -1.0990 ca         1 0JM      -0.149500
     27 H2          -3.3760    -1.2330     0.8660 h1         1 0JM       0.035700
     28 H3          -2.8870    -0.4980    -2.8630 hc         1 0JM       0.036867
     29 H4          -2.3690    -2.1510    -3.1910 hc         1 0JM       0.036867
     30 H5          -4.0360    -1.8280    -2.7280 hc         1 0JM       0.036867
     31 H6          -3.8930    -3.4540    -0.7770 hc         1 0JM       0.036867
     32 H7          -2.2680    -3.8700    -1.3280 hc         1 0JM       0.036867
     33 H8          -2.5350    -3.3730     0.3470 hc         1 0JM       0.036867
     34 H10         -1.2860     0.9200    -1.7070 h2         1 0JM       0.097700
     35 H11         -1.8170    -0.0610     1.8720 h2         1 0JM       0.017700
     36 H12         -2.4340     1.7640     2.8330 ho         1 0JM       0.398000
     37 H13         -0.6520     2.2640     0.2550 h1         1 0JM       0.107700
     38 H14          0.5680    -0.1280     1.4740 hn         1 0JM       0.312500
     39 H15          2.6440    -0.2230     1.8450 hc         1 0JM       0.043700
     40 H17          3.6110    -1.5970     0.2910 ha         1 0JM       0.136500
     41 H18          4.6030     2.5640     0.2200 ha         1 0JM       0.136500
     42 H19          6.2650     2.1370    -1.5300 ha         1 0JM       0.104000
     43 H20          6.6200    -0.1550    -2.3900 ha         1 0JM       0.097000
     44 H21          5.2820    -2.0280    -1.4640 ha         1 0JM       0.104000
@<TRIPOS>BOND
     1     1     2 1   
     2     2     3 1   
     3     2     4 1   
     4     4     5 1   
     5     4     9 1   
     6     4    27 1   
     7     5     6 1   
     8     5     7 1   
     9     5     8 1   
    10     6    28 1   
    11     6    29 1   
    12     6    30 1   
    13     7    31 1   
    14     7    32 1   
    15     7    33 1   
    16     8    10 1   
    17     9    10 1   
    18     9    11 1   
    19    10    13 1   
    20    10    34 1   
    21    11    12 1   
    22    11    13 1   
    23    11    35 1   
    24    12    36 1   
    25    13    14 1   
    26    13    37 1   
    27    14    15 1   
    28    14    38 1   
    29    15    16 2   
    30    15    17 1   
    31    17    18 1   
    32    17    21 1   
    33    17    39 1   
    34    18    19 1   
    35    18    20 1   
    36    21    22 ar  
    37    21    23 ar  
    38    22    26 ar  
    39    22    40 1   
    40    23    24 ar  
    41    23    41 1   
    42    24    25 ar  
    43    24    42 1   
    44    25    26 ar  
    45    25    43 1   
    46    26    44 1   
@<TRIPOS>SUBSTRUCTURE
     1 0JM         1 TEMP              0 ****  ****    0 ROOT
