@<TRIPOS>MOLECULE
0JM
   44    46     1     0     0
SMALL
No Charge or Current Charge


@<TRIPOS>ATOM
      1 O5          -5.8510    -1.1080    -0.6660 o          1 0JM      -0.720500
      2 C16         -4.9040    -0.3400    -0.7870 c          1 0JM       0.734000
      3 O1          -5.0550     0.7770    -1.2720 o          1 0JM      -0.720500
      4 C13         -3.5020    -0.7750    -0.1970 c5         1 0JM       0.052500
      5 C12         -2.6690    -1.5720    -1.2900 c5         1 0JM       0.151000
      6 C14         -2.8270    -1.0510    -2.7470 c3         1 0JM      -0.069600
      7 C15         -2.9660    -3.0900    -1.2730 c3         1 0JM      -0.069600
      8 S1          -0.8860    -1.3170    -0.7990 ss         1 0JM      -0.611000
      9 N2          -2.5850     0.3190     0.3070 nq         1 0JM      -0.657600
     10 C11         -1.2560     0.4340    -0.3360 cy         1 0JM       0.311500
     11 C10         -1.9120     0.1560     1.6170 cy         1 0JM       0.380500
     12 O4          -2.7240     0.7460     2.6050 oh         1 0JM      -0.628000
     13 C9          -0.7730     1.0510     1.0240 cy         1 0JM       0.073700
     14 N1           0.6050     0.9040     1.4570 ns         1 0JM      -0.485900
     15 C8           1.6670     1.5160     0.8310 c          1 0JM       0.652100
     16 O6           1.4960     2.2650    -0.1220 o          1 0JM      -0.631100
     17 C7           3.0310     1.1730     1.4120 c3         1 0JM      -0.258400
     18 C17          3.5820     2.4030     2.1240 c          1 0JM       0.741000
     19 O2           3.9070     3.3840     1.4720 o          1 0JM      -0.715000
     20 O3           3.7090     2.3400     3.3380 o          1 0JM      -0.715000
     21 C1           3.9980     0.5630     0.3870 ca         1 0JM       0.006700
     22 C6           4.5070    -0.7360     0.6000 ca         1 0JM      -0.086500
     23 C2           4.3930     1.2650    -0.7730 ca         1 0JM      -0.086500
     24 C3           5.2760     0.6800    -1.6970 ca         1 0JM      -0.131500
     25 C4           5.7760    -0.6120    -1.4730 ca         1 0JM      -0.144000
     26 C5           5.3910    -1.3200    -0.3240 ca         1 0JM      -0.131500
     27 H2          -3.7290    -1.4460     0.6430 h1         1 0JM       0.035700
     28 H3          -2.6490     0.0280    -2.8140 hc         1 0JM       0.036867
     29 H4          -2.1160    -1.5430    -3.4210 hc         1 0JM       0.036867
     30 H5          -3.8320    -1.2470    -3.1380 hc         1 0JM       0.036867
     31 H6          -4.0070    -3.2950    -1.5500 hc         1 0JM       0.036867
     32 H7          -2.3210    -3.6320    -1.9760 hc         1 0JM       0.036867
     33 H8          -2.7990    -3.5150    -0.2760 hc         1 0JM       0.036867
     34 H10         -1.1820     1.0730    -1.2240 h2         1 0JM       0.097700
     35 H11         -1.6430    -0.8680     1.9020 h2         1 0JM       0.017700
     36 H12         -2.2300     0.6790     3.4480 ho         1 0JM       0.437000
     37 H13         -1.0280     2.1150     1.0820 h1         1 0JM       0.107700
     38 H14          0.8330     0.2870     2.2260 hn         1 0JM       0.312500
     39 H15          2.8560     0.4280     2.1980 hc         1 0JM       0.043700
     40 H17          4.2180    -1.2980     1.4850 ha         1 0JM       0.118500
     41 H18          4.0170     2.2670    -0.9630 ha         1 0JM       0.118500
     42 H19          5.5730     1.2310    -2.5860 ha         1 0JM       0.086000
     43 H20          6.4590    -1.0640    -2.1880 ha         1 0JM       0.079000
     44 H21          5.7760    -2.3210    -0.1480 ha         1 0JM       0.086000
@<TRIPOS>BOND
     1     1     2 1   
     2     2     3 1   
     3     2     4 1   
     4     4     5 1   
     5     4     9 1   
     6     4    27 1   
     7     5     6 1   
     8     5     7 1   
     9     5     8 1   
    10     6    28 1   
    11     6    29 1   
    12     6    30 1   
    13     7    31 1   
    14     7    32 1   
    15     7    33 1   
    16     8    10 1   
    17     9    10 1   
    18     9    11 1   
    19    10    13 1   
    20    10    34 1   
    21    11    12 1   
    22    11    13 1   
    23    11    35 1   
    24    12    36 1   
    25    13    14 1   
    26    13    37 1   
    27    14    15 1   
    28    14    38 1   
    29    15    16 2   
    30    15    17 1   
    31    17    18 1   
    32    17    21 1   
    33    17    39 1   
    34    18    19 1   
    35    18    20 1   
    36    21    22 ar  
    37    21    23 ar  
    38    22    26 ar  
    39    22    40 1   
    40    23    24 ar  
    41    23    41 1   
    42    24    25 ar  
    43    24    42 1   
    44    25    26 ar  
    45    25    43 1   
    46    26    44 1   
@<TRIPOS>SUBSTRUCTURE
     1 0JM         1 TEMP              0 ****  ****    0 ROOT
