@<TRIPOS>MOLECULE
0JN
   46    49     1     0     0
SMALL
abcg2


@<TRIPOS>ATOM
      1 N1          -2.2150     2.1580     1.6160 nb         1 0JN      -0.316000
      2 C2          -3.0980     1.1870     1.8440 ca         1 0JN       0.193900
      3 N3          -3.1670    -0.0040     1.2910 nb         1 0JN      -0.239000
      4 C4          -2.2020    -0.2070     0.3850 ca         1 0JN       0.159500
      5 C5          -1.2070     0.7130     0.0320 ca         1 0JN      -0.380900
      6 C6          -1.2510     1.9520     0.7150 ca         1 0JN       0.457900
      7 CAA         -4.2250    -2.2200    -0.8400 c3         1 0JN      -0.100433
      8 CAB         -2.1740    -3.5390    -1.3620 c3         1 0JN      -0.100433
      9 CAE          4.0510    -1.3690     1.7730 ca         1 0JN      -0.101000
     10 CAF          2.9660    -1.9210     1.0640 ca         1 0JN      -0.108000
     11 CAG          3.4650     2.8220    -0.5560 ca         1 0JN      -0.113000
     12 CAH          2.3620     2.2830    -1.2490 ca         1 0JN      -0.134000
     13 CAI          4.4210    -0.0720     1.5490 ca         1 0JN      -0.103000
     14 CAJ          4.1270     2.0640     0.3660 ca         1 0JN      -0.094000
     15 CAR          1.9170     1.0040    -1.0220 ca         1 0JN      -0.063300
     16 CAS         -0.4490     0.0500    -0.9720 cc         1 0JN       0.389900
     17 CAT          3.7240     0.7310     0.6170 ca         1 0JN      -0.036000
     18 NAX         -2.0050    -1.3090    -0.3650 na         1 0JN      -0.019100
     19 CAY         -2.8030    -2.5520    -0.3840 c3         1 0JN       0.135000
     20 CAC         -2.8100    -3.1620     1.0180 c3         1 0JN      -0.100433
     21 NAP         -0.9530    -1.1410    -1.1800 nd         1 0JN      -0.540100
     22 NAD         -0.3900     2.9470     0.4950 nv         1 0JN      -1.065900
     23 CAM          0.7240     0.4940    -1.7920 c3         1 0JN      -0.047400
     24 CAU          2.6150     0.1840    -0.0860 ca         1 0JN      -0.025000
     25 CAK          2.2670    -1.1670     0.1600 ca         1 0JN      -0.093000
     26 H1          -3.8570     1.4150     2.5860 h5         1 0JN       0.043100
     27 H2          -4.8200    -3.1320    -0.8720 hc         1 0JN       0.049922
     28 H3          -4.7140    -1.5240    -0.1600 hc         1 0JN       0.049922
     29 H4          -4.2200    -1.7840    -1.8400 hc         1 0JN       0.049922
     30 H5          -2.1460    -3.1510    -2.3790 hc         1 0JN       0.049922
     31 H6          -1.1620    -3.8160    -1.0690 hc         1 0JN       0.049922
     32 H7          -2.7830    -4.4440    -1.3670 hc         1 0JN       0.049922
     33 H9           2.6850    -2.9530     1.2340 ha         1 0JN       0.114000
     34 H10          3.7750     3.8390    -0.7590 ha         1 0JN       0.115000
     35 H11          1.8530     2.9010    -1.9810 ha         1 0JN       0.112000
     36 H12          5.2620     0.3560     2.0820 ha         1 0JN       0.113000
     37 H13          4.9730     2.4700     0.9080 ha         1 0JN       0.115000
     38 H14         -3.3850    -4.0880     1.0080 hc         1 0JN       0.049922
     39 H15         -1.7960    -3.3980     1.3450 hc         1 0JN       0.049922
     40 H16         -3.2640    -2.4930     1.7470 hc         1 0JN       0.049922
     41 H17          0.4470     2.8100    -0.0450 hn         1 0JN       0.501500
     42 H18         -0.4360     3.7680     1.0770 hn         1 0JN       0.501500
     43 H19          0.4020     1.2800    -2.4810 hc         1 0JN       0.068200
     44 H20          1.0150    -0.3520    -2.4200 hc         1 0JN       0.068200
     45 H21          1.4430    -1.6190    -0.3730 ha         1 0JN       0.130000
     46 H8           4.5900    -1.9760     2.4880 ha         1 0JN       0.114000
@<TRIPOS>BOND
     1     1     2 ar  
     2     1     6 ar  
     3     2     3 ar  
     4     2    26 1   
     5     3     4 ar  
     6     4     5 ar  
     7     4    18 1   
     8     5     6 ar  
     9     5    16 1   
    10     6    22 1   
    11     7    19 1   
    12     7    27 1   
    13     7    28 1   
    14     7    29 1   
    15     8    19 1   
    16     8    30 1   
    17     8    31 1   
    18     8    32 1   
    19     9    10 ar  
    20     9    13 ar  
    21     9    46 1   
    22    10    25 ar  
    23    10    33 1   
    24    11    12 ar  
    25    11    14 ar  
    26    11    34 1   
    27    12    15 ar  
    28    12    35 1   
    29    13    17 ar  
    30    13    36 1   
    31    14    17 ar  
    32    14    37 1   
    33    15    23 1   
    34    15    24 ar  
    35    16    21 2   
    36    16    23 1   
    37    17    24 ar  
    38    18    19 1   
    39    18    21 1   
    40    19    20 1   
    41    20    38 1   
    42    20    39 1   
    43    20    40 1   
    44    22    41 1   
    45    22    42 1   
    46    23    43 1   
    47    23    44 1   
    48    24    25 ar  
    49    25    45 1   
@<TRIPOS>SUBSTRUCTURE
     1 0JN         1 TEMP              0 ****  ****    0 ROOT
