@<TRIPOS>MOLECULE
0JN
   46    49     1     0     0
SMALL
No Charge or Current Charge


@<TRIPOS>ATOM
      1 N1          -2.0250     2.2230     1.5610 nb         1 0JN      -0.316000
      2 C2          -2.9470     1.2850     1.8780 ca         1 0JN       0.193900
      3 N3          -3.0760     0.0610     1.3170 nb         1 0JN      -0.239000
      4 C4          -2.1820    -0.2400     0.3530 ca         1 0JN       0.159500
      5 C5          -1.2080     0.6470    -0.0200 ca         1 0JN      -0.380900
      6 C6          -1.1520     1.8930     0.6000 ca         1 0JN       0.457900
      7 CAA         -4.3200    -2.2560    -0.7290 c3         1 0JN      -0.100433
      8 CAB         -2.3600    -3.6530    -1.4420 c3         1 0JN      -0.100433
      9 CAE          3.9860    -1.3260     1.8560 ca         1 0JN      -0.101000
     10 CAF          2.9540    -1.8930     1.0950 ca         1 0JN      -0.108000
     11 CAG          3.4330     2.9110    -0.4780 ca         1 0JN      -0.113000
     12 CAH          2.3760     2.3770    -1.2280 ca         1 0JN      -0.134000
     13 CAI          4.3480     0.0140     1.6500 ca         1 0JN      -0.103000
     14 CAJ          4.0720     2.1250     0.4890 ca         1 0JN      -0.094000
     15 CAR          1.9290     1.0540    -1.0170 ca         1 0JN      -0.063300
     16 CAS         -0.4500     0.0170    -1.0780 cc         1 0JN       0.389900
     17 CAT          3.6730     0.7930     0.6910 ca         1 0JN      -0.036000
     18 NAX         -1.9990    -1.3490    -0.4650 na         1 0JN      -0.019100
     19 CAY         -2.8400    -2.5930    -0.4060 c3         1 0JN       0.135000
     20 CAC         -2.7440    -3.2380     1.0030 c3         1 0JN      -0.100433
     21 NAP         -0.9440    -1.1930    -1.3650 nd         1 0JN      -0.540100
     22 NAD         -0.2510     2.8450     0.3010 nv         1 0JN      -1.065900
     23 CAM          0.7340     0.5640    -1.8490 c3         1 0JN      -0.047400
     24 CAU          2.6100     0.2390    -0.0680 ca         1 0JN      -0.025000
     25 CAK          2.2750    -1.1210     0.1380 ca         1 0JN      -0.093000
     26 H1          -3.6610     1.5430     2.6580 h5         1 0JN       0.043100
     27 H2          -4.9320    -3.1660    -0.7530 hc         1 0JN       0.049922
     28 H3          -4.7570    -1.5870     0.0200 hc         1 0JN       0.049922
     29 H4          -4.4010    -1.7670    -1.7080 hc         1 0JN       0.049922
     30 H5          -2.4260    -3.2640    -2.4650 hc         1 0JN       0.049922
     31 H6          -1.3200    -3.9470    -1.2530 hc         1 0JN       0.049922
     32 H7          -2.9750    -4.5590    -1.3910 hc         1 0JN       0.049922
     33 H9           2.6820    -2.9360     1.2430 ha         1 0JN       0.114000
     34 H10          3.7560     3.9370    -0.6440 ha         1 0JN       0.115000
     35 H11          1.8940     3.0070    -1.9730 ha         1 0JN       0.112000
     36 H12          5.1590     0.4440     2.2340 ha         1 0JN       0.113000
     37 H13          4.8890     2.5480     1.0690 ha         1 0JN       0.115000
     38 H14         -3.2980    -4.1830     1.0390 hc         1 0JN       0.049922
     39 H15         -1.6990    -3.4470     1.2620 hc         1 0JN       0.049922
     40 H16         -3.1600    -2.5850     1.7780 hc         1 0JN       0.049922
     41 H17          0.6240     2.5380    -0.1120 hn         1 0JN       0.501500
     42 H18         -0.1830     3.6340     0.9380 hn         1 0JN       0.501500
     43 H19          0.3620     1.3700    -2.4900 hc         1 0JN       0.068200
     44 H20          1.0920    -0.2030    -2.5460 hc         1 0JN       0.068200
     45 H21          1.5020    -1.6070    -0.4450 ha         1 0JN       0.130000
     46 H8           4.5120    -1.9250     2.5960 ha         1 0JN       0.114000
@<TRIPOS>BOND
     1     1     2 ar  
     2     1     6 ar  
     3     2     3 ar  
     4     2    26 1   
     5     3     4 ar  
     6     4     5 ar  
     7     4    18 1   
     8     5     6 ar  
     9     5    16 1   
    10     6    22 1   
    11     7    19 1   
    12     7    27 1   
    13     7    28 1   
    14     7    29 1   
    15     8    19 1   
    16     8    30 1   
    17     8    31 1   
    18     8    32 1   
    19     9    10 ar  
    20     9    13 ar  
    21     9    46 1   
    22    10    25 ar  
    23    10    33 1   
    24    11    12 ar  
    25    11    14 ar  
    26    11    34 1   
    27    12    15 ar  
    28    12    35 1   
    29    13    17 ar  
    30    13    36 1   
    31    14    17 ar  
    32    14    37 1   
    33    15    23 1   
    34    15    24 ar  
    35    16    21 2   
    36    16    23 1   
    37    17    24 ar  
    38    18    19 1   
    39    18    21 1   
    40    19    20 1   
    41    20    38 1   
    42    20    39 1   
    43    20    40 1   
    44    22    41 1   
    45    22    42 1   
    46    23    43 1   
    47    23    44 1   
    48    24    25 ar  
    49    25    45 1   
@<TRIPOS>SUBSTRUCTURE
     1 0JN         1 TEMP              0 ****  ****    0 ROOT
