@<TRIPOS>MOLECULE
0JP
   37    40     1     0     0
SMALL
No Charge or Current Charge


@<TRIPOS>ATOM
      1 C17          0.6770     0.6850     0.4760 ca         1 0JP      -0.151000
      2 C2           2.9820    -0.6970    -0.3590 ca         1 0JP      -0.166000
      3 C11         -1.8570     1.0790    -1.1520 cc         1 0JP       0.254900
      4 C7          -1.9310    -3.1960     0.5900 cc         1 0JP       0.407400
      5 C13         -3.8650     2.0250    -1.1920 cd         1 0JP       0.384300
      6 C16          0.5750    -0.6560     0.0600 ca         1 0JP      -0.005000
      7 C3           1.7470    -1.3640    -0.2890 ca         1 0JP      -0.083300
      8 C18          1.9140     1.3650     0.4050 ca         1 0JP       0.118100
      9 C1           3.0690     0.6750    -0.0320 ca         1 0JP       0.120100
     10 C9          -1.9930    -1.1020     0.0430 cd         1 0JP       0.323500
     11 C15         -0.6570    -1.4420     0.1530 cc         1 0JP      -0.110000
     12 C10         -2.5510     0.1430    -0.4240 cd         1 0JP      -0.240500
     13 C4           1.6610    -2.8840    -0.5490 c6         1 0JP      -0.042100
     14 C5           0.6030    -3.5890     0.3550 c6         1 0JP       0.074600
     15 C22          0.9070     3.4930     1.1780 c3         1 0JP       0.140900
     16 C21          5.4960     0.7470    -0.5210 c3         1 0JP       0.144900
     17 N12         -2.5960     2.1590    -1.5700 nc         1 0JP      -0.636000
     18 N8          -2.7760    -2.1860     0.3980 nd         1 0JP      -0.670000
     19 N6          -0.6330    -2.7870     0.3700 na         1 0JP      -0.164500
     20 O19          2.0330     2.6990     0.7650 os         1 0JP      -0.320100
     21 O20          4.2700     1.3650    -0.0930 os         1 0JP      -0.316100
     22 S14         -4.2570     0.5410    -0.3280 ss         1 0JP       0.020600
     23 H17         -0.2050     1.1820     0.8660 ha         1 0JP       0.136000
     24 H2           3.8630    -1.2600    -0.6530 ha         1 0JP       0.119000
     25 H11         -0.8250     1.0380    -1.4670 h4         1 0JP       0.044100
     26 H7          -2.1860    -4.2170     0.8470 h5         1 0JP       0.058100
     27 H13         -4.6490     2.7420    -1.3990 h5         1 0JP       0.049100
     28 H42          1.3970    -3.0450    -1.6030 hc         1 0JP       0.064200
     29 H41          2.6400    -3.3600    -0.4020 hc         1 0JP       0.064200
     30 H52          0.3930    -4.6020    -0.0160 h1         1 0JP       0.062700
     31 H51          0.9840    -3.6660     1.3820 h1         1 0JP       0.062700
     32 H223         0.1460     3.5310     0.3880 h1         1 0JP       0.044700
     33 H221         0.4520     3.0820     2.0890 h1         1 0JP       0.044700
     34 H222         1.2260     4.5210     1.3930 h1         1 0JP       0.044700
     35 H213         6.3150     1.4760    -0.5020 h1         1 0JP       0.040700
     36 H212         5.7660    -0.0840     0.1430 h1         1 0JP       0.040700
     37 H211         5.4030     0.3660    -1.5460 h1         1 0JP       0.040700
@<TRIPOS>BOND
     1     1     6 ar  
     2     1     8 ar  
     3     1    23 1   
     4     2     7 ar  
     5     2     9 ar  
     6     2    24 1   
     7     3    12 2   
     8     3    17 1   
     9     3    25 1   
    10     4    18 2   
    11     4    19 1   
    12     4    26 1   
    13     5    17 2   
    14     5    22 1   
    15     5    27 1   
    16     6     7 ar  
    17     6    11 1   
    18     7    13 1   
    19     8     9 ar  
    20     8    20 1   
    21     9    21 1   
    22    10    11 2   
    23    10    12 1   
    24    10    18 1   
    25    11    19 1   
    26    12    22 1   
    27    13    14 1   
    28    13    28 1   
    29    13    29 1   
    30    14    19 1   
    31    14    30 1   
    32    14    31 1   
    33    15    20 1   
    34    15    32 1   
    35    15    33 1   
    36    15    34 1   
    37    16    21 1   
    38    16    35 1   
    39    16    36 1   
    40    16    37 1   
@<TRIPOS>SUBSTRUCTURE
     1 0JP         1 TEMP              0 ****  ****    0 ROOT
