@<TRIPOS>MOLECULE
0JP
   37    40     1     0     0
SMALL
bcc


@<TRIPOS>ATOM
      1 C17          0.7560     0.6960     0.2670 ca         1 0JP      -0.169000
      2 C2           3.0650    -0.7510    -0.2190 ca         1 0JP      -0.184000
      3 C11         -2.2090     1.2530    -1.1510 cc         1 0JP       0.320200
      4 C7          -1.8480    -3.1850     0.2150 cc         1 0JP       0.407400
      5 C13         -4.1690     2.0180    -0.5490 cd         1 0JP       0.384300
      6 C16          0.6710    -0.6760    -0.0030 ca         1 0JP      -0.005000
      7 C3           1.8340    -1.4050    -0.2310 ca         1 0JP      -0.083300
      8 C18          1.9740     1.3450     0.2690 ca         1 0JP       0.118100
      9 C1           3.1530     0.6100     0.0180 ca         1 0JP       0.120100
     10 C9          -1.9370    -1.0780    -0.1130 cd         1 0JP       0.388800
     11 C15         -0.5950    -1.3940    -0.0040 cc         1 0JP      -0.124600
     12 C10         -2.5910     0.1850    -0.3890 cd         1 0JP      -0.160900
     13 C4           1.7370    -2.8830    -0.4910 c6         1 0JP      -0.042100
     14 C5           0.6500    -3.5040     0.3710 c6         1 0JP       0.045300
     15 C22          0.9940     3.4520     0.7130 c3         1 0JP       0.117700
     16 C21          5.5090     0.6320    -0.1970 c3         1 0JP       0.121700
     17 N12         -3.1000     2.2810    -1.2290 nc         1 0JP      -0.636000
     18 N8          -2.6950    -2.2070     0.0420 nd         1 0JP      -0.670000
     19 N6          -0.5750    -2.7500     0.1830 na         1 0JP      -0.185900
     20 O19          2.1440     2.6590     0.5020 os         1 0JP      -0.296900
     21 O20          4.2950     1.3160     0.0440 os         1 0JP      -0.292900
     22 S14         -4.1670     0.4940     0.2410 ss         1 0JP      -0.124300
     23 H17         -0.1480     1.2420     0.4920 ha         1 0JP       0.154000
     24 H2           3.9600    -1.3340    -0.3990 ha         1 0JP       0.137000
     25 H11         -1.2770     1.3130    -1.6950 h4         1 0JP       0.044100
     26 H7          -2.0980    -4.2250     0.3590 h5         1 0JP       0.058100
     27 H13         -5.0190     2.6830    -0.4740 h5         1 0JP       0.049100
     28 H42          1.5100    -3.0670    -1.5470 hc         1 0JP       0.064200
     29 H41          2.6860    -3.3750    -0.2780 hc         1 0JP       0.064200
     30 H52          0.4680    -4.5410     0.0960 h1         1 0JP       0.062700
     31 H51          0.9330    -3.4750     1.4250 h1         1 0JP       0.062700
     32 H223         0.3110     3.4150    -0.1410 h1         1 0JP       0.044700
     33 H221         0.4490     3.1530     1.6130 h1         1 0JP       0.044700
     34 H222         1.3420     4.4740     0.8380 h1         1 0JP       0.044700
     35 H213         6.2990     1.3760    -0.1420 h1         1 0JP       0.040700
     36 H212         5.6980    -0.1390     0.5550 h1         1 0JP       0.040700
     37 H211         5.5260     0.1690    -1.1870 h1         1 0JP       0.040700
@<TRIPOS>BOND
     1     1     6 ar  
     2     1     8 ar  
     3     1    23 1   
     4     2     7 ar  
     5     2     9 ar  
     6     2    24 1   
     7     3    12 2   
     8     3    17 1   
     9     3    25 1   
    10     4    18 2   
    11     4    19 1   
    12     4    26 1   
    13     5    17 2   
    14     5    22 1   
    15     5    27 1   
    16     6     7 ar  
    17     6    11 1   
    18     7    13 1   
    19     8     9 ar  
    20     8    20 1   
    21     9    21 1   
    22    10    11 2   
    23    10    12 1   
    24    10    18 1   
    25    11    19 1   
    26    12    22 1   
    27    13    14 1   
    28    13    28 1   
    29    13    29 1   
    30    14    19 1   
    31    14    30 1   
    32    14    31 1   
    33    15    20 1   
    34    15    32 1   
    35    15    33 1   
    36    15    34 1   
    37    16    21 1   
    38    16    35 1   
    39    16    36 1   
    40    16    37 1   
@<TRIPOS>SUBSTRUCTURE
     1 0JP         1 TEMP              0 ****  ****    0 ROOT
