@<TRIPOS>MOLECULE
0JQ
   61    64     1     0     0
SMALL
No Charge or Current Charge


@<TRIPOS>ATOM
      1 C11          8.0940    -1.8820     0.4490 c3         1 0JQ       0.141900
      2 O2           6.6960    -2.1960     0.5810 os         1 0JQ      -0.316100
      3 C9           5.6950    -1.2680     0.3390 ca         1 0JQ       0.138100
      4 C5           5.9890     0.0570    -0.0480 ca         1 0JQ      -0.171000
      5 C6           4.3490    -1.6700     0.4960 ca         1 0JQ       0.156100
      6 O1           4.0890    -2.9730     0.8900 os         1 0JQ      -0.314100
      7 C10          2.7540    -3.4780     1.0710 c3         1 0JQ       0.141900
      8 C3           3.3100    -0.7440     0.2540 ca         1 0JQ      -0.203000
      9 C1           3.6060     0.5770    -0.1520 ca         1 0JQ      -0.020000
     10 C2           4.9600     0.9830    -0.2890 ca         1 0JQ       0.218000
     11 N1           5.2730     2.2530    -0.6430 nb         1 0JQ      -0.307000
     12 N2           4.3180     3.1700    -0.8720 nb         1 0JQ      -0.308000
     13 C7           3.0120     2.8400    -0.7590 ca         1 0JQ       0.260900
     14 C4           2.5820     1.5360    -0.4100 cp         1 0JQ      -0.017000
     15 C8           1.1200     1.2320    -0.3420 cp         1 0JQ      -0.129000
     16 C12          0.2570     1.9900     0.4780 ca         1 0JQ      -0.048000
     17 C13         -1.1160     1.6860     0.5000 ca         1 0JQ      -0.143300
     18 C16         -2.0480     2.4800     1.4130 c3         1 0JQ      -0.037800
     19 C15          0.5390     0.2050    -1.1250 ca         1 0JQ       0.380900
     20 N3          -0.7760    -0.0970    -1.1170 nb         1 0JQ      -0.731000
     21 C14         -1.5810     0.6300    -0.3220 ca         1 0JQ       0.585900
     22 N4          -2.9350     0.2640    -0.3780 nh         1 0JQ      -0.754300
     23 C24         -3.3280    -1.1690    -0.4260 c6         1 0JQ       0.198300
     24 C23         -4.7470    -1.3650     0.1600 c6         1 0JQ      -0.076400
     25 C20         -3.8820     1.1520    -1.0960 c6         1 0JQ       0.198300
     26 C21         -5.3140     1.0080    -0.5270 c6         1 0JQ      -0.076400
     27 C22         -5.7990    -0.4750    -0.5720 c6         1 0JQ      -0.047700
     28 C18         -7.2820    -0.6900    -0.0640 c3         1 0JQ       0.191000
     29 C17         -7.4850    -0.3460     1.4340 c3         1 0JQ      -0.121100
     30 C19         -8.3070     0.1050    -0.9110 c3         1 0JQ      -0.121100
     31 O3          -7.6330    -2.0670    -0.2170 oh         1 0JQ      -0.663000
     32 H1           8.3800    -1.0760     1.1370 h1         1 0JQ       0.046367
     33 H2           8.7050    -2.7620     0.6860 h1         1 0JQ       0.046367
     34 H3           8.3300    -1.5720    -0.5770 h1         1 0JQ       0.046367
     35 H4           7.0140     0.3920    -0.1650 ha         1 0JQ       0.144000
     36 H5           2.7860    -4.5310     1.3780 h1         1 0JQ       0.046700
     37 H6           2.2250    -2.9140     1.8490 h1         1 0JQ       0.046700
     38 H7           2.1830    -3.4140     0.1360 h1         1 0JQ       0.046700
     39 H8           2.2780    -1.0420     0.3960 ha         1 0JQ       0.134000
     40 H9           2.2920     3.6280    -0.9700 h4         1 0JQ       0.027100
     41 H10          0.6540     2.7940     1.0940 ha         1 0JQ       0.122000
     42 H11         -2.5620     3.2730     0.8580 hc         1 0JQ       0.046367
     43 H12         -2.8120     1.8360     1.8660 hc         1 0JQ       0.046367
     44 H13         -1.4980     2.9540     2.2340 hc         1 0JQ       0.046367
     45 H14          1.1620    -0.3950    -1.7880 h4         1 0JQ       0.024100
     46 H15         -3.3060    -1.5340    -1.4630 h1         1 0JQ       0.044450
     47 H16         -2.6210    -1.7780     0.1560 h1         1 0JQ       0.044450
     48 H17         -5.0180    -2.4260     0.0850 hc         1 0JQ       0.051950
     49 H18         -4.7190    -1.1230     1.2300 hc         1 0JQ       0.051950
     50 H19         -3.5690     2.2030    -1.0110 h1         1 0JQ       0.044450
     51 H20         -3.8890     0.9020    -2.1670 h1         1 0JQ       0.044450
     52 H21         -5.3250     1.3840     0.5050 hc         1 0JQ       0.051950
     53 H22         -5.9830     1.6560    -1.1060 hc         1 0JQ       0.051950
     54 H23         -5.8060    -0.7840    -1.6280 hc         1 0JQ       0.056700
     55 H24         -7.2530     0.7070     1.6330 hc         1 0JQ       0.040533
     56 H25         -8.5260    -0.5150     1.7370 hc         1 0JQ       0.040533
     57 H26         -6.8510    -0.9640     2.0790 hc         1 0JQ       0.040533
     58 H27         -8.1730    -0.0970    -1.9810 hc         1 0JQ       0.040533
     59 H28         -9.3360    -0.1660    -0.6440 hc         1 0JQ       0.040533
     60 H29         -8.2040     1.1840    -0.7510 hc         1 0JQ       0.040533
     61 H30         -8.5490    -2.1650     0.1180 ho         1 0JQ       0.440000
@<TRIPOS>BOND
     1     1     2 1   
     2     1    32 1   
     3     1    33 1   
     4     1    34 1   
     5     2     3 1   
     6     3     4 ar  
     7     3     5 ar  
     8     4    10 ar  
     9     4    35 1   
    10     5     6 1   
    11     5     8 ar  
    12     6     7 1   
    13     7    36 1   
    14     7    37 1   
    15     7    38 1   
    16     8     9 ar  
    17     8    39 1   
    18     9    10 ar  
    19     9    14 ar  
    20    10    11 ar  
    21    11    12 ar  
    22    12    13 ar  
    23    13    14 ar  
    24    13    40 1   
    25    14    15 1   
    26    15    16 ar  
    27    15    19 ar  
    28    16    17 ar  
    29    16    41 1   
    30    17    18 1   
    31    17    21 ar  
    32    18    42 1   
    33    18    43 1   
    34    18    44 1   
    35    19    20 ar  
    36    19    45 1   
    37    20    21 ar  
    38    21    22 1   
    39    22    23 1   
    40    22    25 1   
    41    23    24 1   
    42    23    46 1   
    43    23    47 1   
    44    24    27 1   
    45    24    48 1   
    46    24    49 1   
    47    25    26 1   
    48    25    50 1   
    49    25    51 1   
    50    26    27 1   
    51    26    52 1   
    52    26    53 1   
    53    27    28 1   
    54    27    54 1   
    55    28    29 1   
    56    28    30 1   
    57    28    31 1   
    58    29    55 1   
    59    29    56 1   
    60    29    57 1   
    61    30    58 1   
    62    30    59 1   
    63    30    60 1   
    64    31    61 1   
@<TRIPOS>SUBSTRUCTURE
     1 0JQ         1 TEMP              0 ****  ****    0 ROOT
