@<TRIPOS>MOLECULE
0JQ
   61    64     1     0     0
SMALL
abcg2


@<TRIPOS>ATOM
      1 C11          7.9670    -1.8350     0.3100 c3         1 0JQ       0.141900
      2 O2           6.6140    -2.1620     0.5730 os         1 0JQ      -0.316100
      3 C9           5.6850    -1.2430     0.3090 ca         1 0JQ       0.138100
      4 C5           5.9170     0.0070    -0.1810 ca         1 0JQ      -0.171000
      5 C6           4.3360    -1.6580     0.6040 ca         1 0JQ       0.156100
      6 O1           4.2390    -2.8850     1.1150 os         1 0JQ      -0.314100
      7 C10          2.9520    -3.3770     1.4450 c3         1 0JQ       0.141900
      8 C3           3.2860    -0.8170     0.3630 ca         1 0JQ      -0.203000
      9 C1           3.5090     0.4750    -0.1720 ca         1 0JQ      -0.020000
     10 C2           4.8380     0.8960    -0.4200 ca         1 0JQ       0.218000
     11 N1           5.1430     2.1250    -0.8720 nb         1 0JQ      -0.307000
     12 N2           4.2030     2.9860    -1.0930 nb         1 0JQ      -0.308000
     13 C7           2.9250     2.6510    -0.9010 ca         1 0JQ       0.260900
     14 C4           2.5010     1.4110    -0.4600 cp         1 0JQ      -0.017000
     15 C8           1.0650     1.1330    -0.3240 cp         1 0JQ      -0.129000
     16 C12          0.2170     1.9850     0.3870 ca         1 0JQ      -0.048000
     17 C13         -1.1400     1.7410     0.4760 ca         1 0JQ      -0.143300
     18 C16         -2.0030     2.6010     1.3520 c3         1 0JQ      -0.037800
     19 C15          0.4720     0.0310    -0.9220 ca         1 0JQ       0.380900
     20 N3          -0.8280    -0.2100    -0.8800 nb         1 0JQ      -0.731000
     21 C14         -1.6360     0.6150    -0.2220 ca         1 0JQ       0.585900
     22 N4          -2.9860     0.2990    -0.1900 nh         1 0JQ      -0.754300
     23 C24         -3.3560    -1.0620    -0.5400 c6         1 0JQ       0.198300
     24 C23         -4.7600    -1.3700    -0.0400 c6         1 0JQ      -0.076400
     25 C20         -3.9100     1.2730    -0.7610 c6         1 0JQ       0.198300
     26 C21         -5.3310     1.0290    -0.2820 c6         1 0JQ      -0.076400
     27 C22         -5.7840    -0.3910    -0.6140 c6         1 0JQ      -0.047700
     28 C18         -7.2360    -0.6920    -0.1920 c3         1 0JQ       0.191000
     29 C17         -7.4470    -0.5820     1.3180 c3         1 0JQ      -0.121100
     30 C19         -8.2090     0.2390    -0.9170 c3         1 0JQ      -0.121100
     31 O3          -7.4770    -2.0310    -0.6120 oh         1 0JQ      -0.663000
     32 H1           8.2980    -0.9830     0.9080 h1         1 0JQ       0.046367
     33 H2           8.5530    -2.7080     0.5820 h1         1 0JQ       0.046367
     34 H3           8.1280    -1.6120    -0.7480 h1         1 0JQ       0.046367
     35 H4           6.9150     0.3640    -0.3970 ha         1 0JQ       0.144000
     36 H5           3.0990    -4.3730     1.8510 h1         1 0JQ       0.046700
     37 H6           2.4650    -2.7530     2.1990 h1         1 0JQ       0.046700
     38 H7           2.3090    -3.4430     0.5640 h1         1 0JQ       0.046700
     39 H8           2.2770    -1.1160     0.6030 ha         1 0JQ       0.134000
     40 H9           2.2040     3.4250    -1.1380 h4         1 0JQ       0.027100
     41 H10          0.6350     2.8320     0.9200 ha         1 0JQ       0.122000
     42 H11         -2.4500     3.4340     0.8050 hc         1 0JQ       0.046367
     43 H12         -2.8160     2.0210     1.7880 hc         1 0JQ       0.046367
     44 H13         -1.4140     3.0280     2.1630 hc         1 0JQ       0.046367
     45 H14          1.0700    -0.6760    -1.4890 h4         1 0JQ       0.024100
     46 H15         -3.3070    -1.2220    -1.6270 h1         1 0JQ       0.044450
     47 H16         -2.6460    -1.7530    -0.0860 h1         1 0JQ       0.044450
     48 H17         -5.0040    -2.3970    -0.3150 hc         1 0JQ       0.051950
     49 H18         -4.7610    -1.3190     1.0530 hc         1 0JQ       0.051950
     50 H19         -3.6050     2.2830    -0.5000 h1         1 0JQ       0.044450
     51 H20         -3.8780     1.2110    -1.8600 h1         1 0JQ       0.044450
     52 H21         -5.3740     1.2020     0.7970 hc         1 0JQ       0.051950
     53 H22         -5.9760     1.7720    -0.7540 hc         1 0JQ       0.051950
     54 H23         -5.7540    -0.4910    -1.7090 hc         1 0JQ       0.056700
     55 H24         -7.2400     0.4230     1.6850 hc         1 0JQ       0.040533
     56 H25         -8.4850    -0.8070     1.5720 hc         1 0JQ       0.040533
     57 H26         -6.8130    -1.2790     1.8670 hc         1 0JQ       0.040533
     58 H27         -8.0720     0.1830    -1.9990 hc         1 0JQ       0.040533
     59 H28         -9.2410    -0.0380    -0.6920 hc         1 0JQ       0.040533
     60 H29         -8.0870     1.2790    -0.6160 hc         1 0JQ       0.040533
     61 H30         -8.3770    -2.2640    -0.3620 ho         1 0JQ       0.440000
@<TRIPOS>BOND
     1     1     2 1   
     2     1    32 1   
     3     1    33 1   
     4     1    34 1   
     5     2     3 1   
     6     3     4 ar  
     7     3     5 ar  
     8     4    10 ar  
     9     4    35 1   
    10     5     6 1   
    11     5     8 ar  
    12     6     7 1   
    13     7    36 1   
    14     7    37 1   
    15     7    38 1   
    16     8     9 ar  
    17     8    39 1   
    18     9    10 ar  
    19     9    14 ar  
    20    10    11 ar  
    21    11    12 ar  
    22    12    13 ar  
    23    13    14 ar  
    24    13    40 1   
    25    14    15 1   
    26    15    16 ar  
    27    15    19 ar  
    28    16    17 ar  
    29    16    41 1   
    30    17    18 1   
    31    17    21 ar  
    32    18    42 1   
    33    18    43 1   
    34    18    44 1   
    35    19    20 ar  
    36    19    45 1   
    37    20    21 ar  
    38    21    22 1   
    39    22    23 1   
    40    22    25 1   
    41    23    24 1   
    42    23    46 1   
    43    23    47 1   
    44    24    27 1   
    45    24    48 1   
    46    24    49 1   
    47    25    26 1   
    48    25    50 1   
    49    25    51 1   
    50    26    27 1   
    51    26    52 1   
    52    26    53 1   
    53    27    28 1   
    54    27    54 1   
    55    28    29 1   
    56    28    30 1   
    57    28    31 1   
    58    29    55 1   
    59    29    56 1   
    60    29    57 1   
    61    30    58 1   
    62    30    59 1   
    63    30    60 1   
    64    31    61 1   
@<TRIPOS>SUBSTRUCTURE
     1 0JQ         1 TEMP              0 ****  ****    0 ROOT
