@<TRIPOS>MOLECULE
0JR
   45    45     1     0     0
SMALL
bcc


@<TRIPOS>ATOM
      1 OAE          3.3590    -1.5910     1.0830 o          1 0JR      -0.612100
      2 CAU          3.1110    -0.9220     0.0860 c          1 0JR       0.632100
      3 CAV          4.2480    -0.3460    -0.7580 c3         1 0JR       0.077100
      4 OAG          5.3070    -1.2660    -0.7520 oh         1 0JR      -0.584800
      5 CAW          4.6890     1.0790    -0.3200 c3         1 0JR      -0.063000
      6 CAB          5.7960     1.5290    -1.2780 c3         1 0JR      -0.082100
      7 CAC          3.5110     2.0490    -0.4390 c3         1 0JR      -0.082100
      8 CAP          5.2060     1.0540     1.1210 c3         1 0JR       0.142400
      9 OAS          5.6630     2.3410     1.4740 oh         1 0JR      -0.601800
     10 NAR          1.8690    -0.6640    -0.3290 ns         1 0JR      -0.566900
     11 CAN          0.6930    -1.1180     0.3870 c3         1 0JR       0.113000
     12 CAO         -0.5480    -0.4770    -0.2140 c3         1 0JR      -0.182400
     13 CAT         -1.7990    -0.8600     0.5490 c          1 0JR       0.672100
     14 OAD         -1.8120    -0.9260     1.7690 o          1 0JR      -0.592100
     15 NAQ         -2.8770    -1.0930    -0.2200 ns         1 0JR      -0.573900
     16 CAM         -4.1920    -1.3950     0.2900 c3         1 0JR       0.148300
     17 CAL         -5.1890    -0.3050    -0.0040 ca         1 0JR      -0.232600
     18 C2          -6.4260    -0.6080    -0.5580 ca         1 0JR       0.407200
     19 N1          -7.3610     0.2960    -0.8330 nb         1 0JR      -0.663000
     20 C6          -7.0900     1.5660    -0.5650 ca         1 0JR       0.405200
     21 C5          -5.8860     1.9840    -0.0150 ca         1 0JR      -0.248300
     22 C4          -4.9210     1.0320     0.2690 ca         1 0JR      -0.076000
     23 H13          3.9060    -0.2590    -1.7960 h1         1 0JR       0.069700
     24 H14          5.3310    -1.6800     0.1200 ho         1 0JR       0.429000
     25 H15          5.4250     1.5510    -2.3060 hc         1 0JR       0.040367
     26 H16          6.1420     2.5320    -1.0340 hc         1 0JR       0.040367
     27 H17          6.6560     0.8600    -1.2500 hc         1 0JR       0.040367
     28 H18          2.7290     1.8500     0.2950 hc         1 0JR       0.040367
     29 H19          3.8470     3.0740    -0.2880 hc         1 0JR       0.040367
     30 H20          3.0610     2.0030    -1.4340 hc         1 0JR       0.040367
     31 H21          4.4020     0.7320     1.7960 h1         1 0JR       0.029200
     32 H22          6.0150     0.3170     1.2100 h1         1 0JR       0.029200
     33 H23          6.0160     2.2930     2.3660 ho         1 0JR       0.406000
     34 H12          1.7410    -0.1840    -1.2050 hn         1 0JR       0.315500
     35 H11          0.6150    -2.2070     0.3340 h1         1 0JR       0.070700
     36 H10          0.7820    -0.8490     1.4390 h1         1 0JR       0.070700
     37 H8          -0.4580     0.6130    -0.1670 hc         1 0JR       0.061200
     38 H9          -0.6370    -0.7410    -1.2700 hc         1 0JR       0.061200
     39 H7          -2.7790    -1.0190    -1.2200 hn         1 0JR       0.314500
     40 H5          -4.5430    -2.3360    -0.1390 h1         1 0JR       0.070200
     41 H6          -4.1120    -1.5510     1.3660 h1         1 0JR       0.070200
     42 H4          -6.6700    -1.6390    -0.7950 h4         1 0JR       0.017100
     43 H3          -7.8630     2.2890    -0.8010 h4         1 0JR       0.021100
     44 H2          -5.7110     3.0330     0.1830 ha         1 0JR       0.144000
     45 H1          -3.9720     1.3310     0.6970 ha         1 0JR       0.143000
@<TRIPOS>BOND
     1     1     2 2   
     2     2     3 1   
     3     2    10 1   
     4     3     4 1   
     5     3     5 1   
     6     3    23 1   
     7     4    24 1   
     8     5     6 1   
     9     5     7 1   
    10     5     8 1   
    11     6    25 1   
    12     6    26 1   
    13     6    27 1   
    14     7    28 1   
    15     7    29 1   
    16     7    30 1   
    17     8     9 1   
    18     8    31 1   
    19     8    32 1   
    20     9    33 1   
    21    10    11 1   
    22    10    34 1   
    23    11    12 1   
    24    11    35 1   
    25    11    36 1   
    26    12    13 1   
    27    12    37 1   
    28    12    38 1   
    29    13    14 2   
    30    13    15 1   
    31    15    16 1   
    32    15    39 1   
    33    16    17 1   
    34    16    40 1   
    35    16    41 1   
    36    17    18 ar  
    37    17    22 ar  
    38    18    19 ar  
    39    18    42 1   
    40    19    20 ar  
    41    20    21 ar  
    42    20    43 1   
    43    21    22 ar  
    44    21    44 1   
    45    22    45 1   
@<TRIPOS>SUBSTRUCTURE
     1 0JR         1 TEMP              0 ****  ****    0 ROOT
