@<TRIPOS>MOLECULE
0JR
   45    45     1     0     0
SMALL
No Charge or Current Charge


@<TRIPOS>ATOM
      1 OAE          3.0860    -1.5110     1.0980 o          1 0JR      -0.612100
      2 CAU          2.9900    -1.0580    -0.0360 c          1 0JR       0.565100
      3 CAV          4.2150    -0.4610    -0.8070 c3         1 0JR       0.100300
      4 OAG          5.4040    -1.2630    -0.5800 oh         1 0JR      -0.647000
      5 CAW          4.4950     1.0540    -0.4760 c3         1 0JR      -0.063000
      6 CAB          5.6410     1.5720    -1.3990 c3         1 0JR      -0.082100
      7 CAC          3.2160     1.8920    -0.7810 c3         1 0JR      -0.082100
      8 CAP          4.8940     1.2270     1.0290 c3         1 0JR       0.165600
      9 OAS          5.1650     2.6000     1.3530 oh         1 0JR      -0.664000
     10 NAR          1.8060    -1.1170    -0.7450 ns         1 0JR      -0.499900
     11 CAN          0.5360    -1.6100    -0.2060 c3         1 0JR       0.113000
     12 CAO         -0.1470    -0.5570     0.6850 c3         1 0JR      -0.182400
     13 CAT         -1.4840    -1.0800     1.2040 c          1 0JR       0.605100
     14 OAD         -1.5640    -1.9300     2.0780 o          1 0JR      -0.592100
     15 NAQ         -2.5970    -0.5010     0.6420 ns         1 0JR      -0.506900
     16 CAM         -3.9700    -0.8410     1.0040 c3         1 0JR       0.148300
     17 CAL         -4.9630    -0.0360     0.1860 ca         1 0JR      -0.167300
     18 C2          -5.6940    -0.6440    -0.8540 ca         1 0JR       0.341900
     19 N1          -6.5940     0.0220    -1.6150 nb         1 0JR      -0.663000
     20 C6          -6.7920     1.3350    -1.3540 ca         1 0JR       0.339900
     21 C5          -6.1090     2.0220    -0.3360 ca         1 0JR      -0.165000
     22 C4          -5.1760     1.3290     0.4520 ca         1 0JR      -0.058000
     23 H13          3.9570    -0.5170    -1.8730 h1         1 0JR       0.069700
     24 H14          5.3030    -1.6710     0.3110 ho         1 0JR       0.468000
     25 H15          5.4060     1.3910    -2.4550 hc         1 0JR       0.040367
     26 H16          5.7970     2.6510    -1.2750 hc         1 0JR       0.040367
     27 H17          6.5910     1.0730    -1.1740 hc         1 0JR       0.040367
     28 H18          2.3990     1.6400    -0.0930 hc         1 0JR       0.040367
     29 H19          3.4100     2.9660    -0.6790 hc         1 0JR       0.040367
     30 H20          2.8660     1.7170    -1.8050 hc         1 0JR       0.040367
     31 H21          4.0800     0.8570     1.6660 h1         1 0JR       0.029200
     32 H22          5.7810     0.6170     1.2430 h1         1 0JR       0.029200
     33 H23          5.4170     2.6250     2.3030 ho         1 0JR       0.445000
     34 H12          1.8170    -0.7560    -1.6930 hn         1 0JR       0.315500
     35 H11         -0.1250    -1.8690    -1.0450 h1         1 0JR       0.070700
     36 H10          0.7200    -2.5270     0.3720 h1         1 0JR       0.070700
     37 H8           0.5040    -0.3440     1.5400 hc         1 0JR       0.061200
     38 H9          -0.2990     0.3550     0.0950 hc         1 0JR       0.061200
     39 H7          -2.4430     0.2060    -0.0660 hn         1 0JR       0.314500
     40 H5          -4.1290    -1.9160     0.8410 h1         1 0JR       0.070200
     41 H6          -4.1200    -0.6350     2.0730 h1         1 0JR       0.070200
     42 H4          -5.5550    -1.6990    -1.0880 h4         1 0JR       0.017100
     43 H3          -7.5210     1.8500    -1.9790 h4         1 0JR       0.021100
     44 H2          -6.3050     3.0770    -0.1670 ha         1 0JR       0.126000
     45 H1          -4.6340     1.8380     1.2470 ha         1 0JR       0.125000
@<TRIPOS>BOND
     1     1     2 2   
     2     2     3 1   
     3     2    10 1   
     4     3     4 1   
     5     3     5 1   
     6     3    23 1   
     7     4    24 1   
     8     5     6 1   
     9     5     7 1   
    10     5     8 1   
    11     6    25 1   
    12     6    26 1   
    13     6    27 1   
    14     7    28 1   
    15     7    29 1   
    16     7    30 1   
    17     8     9 1   
    18     8    31 1   
    19     8    32 1   
    20     9    33 1   
    21    10    11 1   
    22    10    34 1   
    23    11    12 1   
    24    11    35 1   
    25    11    36 1   
    26    12    13 1   
    27    12    37 1   
    28    12    38 1   
    29    13    14 2   
    30    13    15 1   
    31    15    16 1   
    32    15    39 1   
    33    16    17 1   
    34    16    40 1   
    35    16    41 1   
    36    17    18 ar  
    37    17    22 ar  
    38    18    19 ar  
    39    18    42 1   
    40    19    20 ar  
    41    20    21 ar  
    42    20    43 1   
    43    21    22 ar  
    44    21    44 1   
    45    22    45 1   
@<TRIPOS>SUBSTRUCTURE
     1 0JR         1 TEMP              0 ****  ****    0 ROOT
