@<TRIPOS>MOLECULE
0JS
   61    64     1     0     0
SMALL
bcc


@<TRIPOS>ATOM
      1 N11         20.1980     7.7080     2.9770 nc         1 0JS      -0.871000
      2 C12         19.8190     8.3260     4.1060 cc         1 0JS       0.725300
      3 C14         21.2830     7.1910     5.3520 cd         1 0JS       0.444500
      4 C15         22.0060     6.6760     6.4070 cc         1 0JS      -0.223800
      5 C16         22.8290     5.6880     5.8230 cc         1 0JS       0.429600
      6 C19         23.8060     4.8090     6.5170 c3         1 0JS      -0.107400
      7 C20         21.9280     7.0830     7.8100 ca         1 0JS      -0.058800
      8 C24         22.2240     8.7730     9.5390 ca         1 0JS      -0.239000
      9 C25         21.8100     7.8410    10.4730 ca         1 0JS       0.061100
     10 C27         21.4450     6.5500    10.1380 ca         1 0JS      -0.239000
     11 C28         21.5020     6.1820     8.7930 ca         1 0JS       0.192600
     12 C30         20.7120     3.9950     9.2840 c3         1 0JS       0.124200
     13 C01         24.5530     2.9290     2.5430 c3         1 0JS      -0.090100
     14 C02         23.4340     2.8900     1.5110 c3         1 0JS      -0.069400
     15 C03         22.2760     3.8370     1.8150 c3         1 0JS      -0.094400
     16 C04         22.6760     5.3020     1.7000 c3         1 0JS       0.232800
     17 C06         20.8330     6.5300     0.6310 c3         1 0JS       0.258800
     18 C07         21.5030     7.6080    -0.1780 cx         1 0JS      -0.155700
     19 C08         20.6870     8.3700    -1.1770 cx         1 0JS      -0.121400
     20 C09         21.1890     9.0530     0.0590 cx         1 0JS      -0.121400
     21 C10         21.1600     6.8060     3.0040 cd         1 0JS       0.868400
     22 C21         22.2830     8.3810     8.2010 ca         1 0JS       0.192600
     23 C23         23.0340    10.5340     7.5330 c3         1 0JS       0.124200
     24 C31         18.7300     9.3360     3.9520 c3         1 0JS      -0.132400
     25 N05         21.5470     6.2170     1.8720 nh         1 0JS      -0.772300
     26 N13         20.3220     8.1260     5.2970 nd         1 0JS      -0.716000
     27 N17         22.6520     5.5940     4.5210 nd         1 0JS      -0.595100
     28 N18         21.7110     6.5120     4.2240 na         1 0JS      -0.137600
     29 O22         22.6860     9.1990     7.2200 os         1 0JS      -0.302400
     30 O29         21.1500     4.9660     8.3530 os         1 0JS      -0.302400
     31 BR2         21.7430     8.3580    12.2900 br         1 0JS      -0.108100
     32 H192        24.5350     4.4060     5.8160 hc         1 0JS       0.051033
     33 H193        24.3380     5.3540     7.2960 hc         1 0JS       0.051033
     34 H191        23.3010     3.9700     6.9960 hc         1 0JS       0.051033
     35 H241        22.5020     9.7700     9.8470 ha         1 0JS       0.151500
     36 H271        21.1190     5.8560    10.9000 ha         1 0JS       0.151500
     37 H302        20.4860     3.1010     8.7090 h1         1 0JS       0.042033
     38 H303        21.4860     3.7560    10.0170 h1         1 0JS       0.042033
     39 H301        19.8090     4.3130     9.8110 h1         1 0JS       0.042033
     40 H013        25.3270     2.1960     2.3090 hc         1 0JS       0.034700
     41 H011        25.0370     3.9050     2.5930 hc         1 0JS       0.034700
     42 H012        24.1730     2.7000     3.5410 hc         1 0JS       0.034700
     43 H021        23.0410     1.8720     1.4500 hc         1 0JS       0.036700
     44 H022        23.8380     3.1160     0.5190 hc         1 0JS       0.036700
     45 H032        21.4560     3.6350     1.1210 hc         1 0JS       0.051200
     46 H031        21.8960     3.6450     2.8210 hc         1 0JS       0.051200
     47 H041        23.4660     5.5520     2.3980 h1         1 0JS       0.064200
     48 H042        23.0710     5.4920     0.7000 h1         1 0JS       0.064200
     49 H062        19.8060     6.8060     0.8600 h1         1 0JS       0.066200
     50 H061        20.7950     5.6040     0.0530 h1         1 0JS       0.066200
     51 H071        22.5220     7.3850    -0.4780 hc         1 0JS       0.075700
     52 H081        21.1430     8.6160    -2.1270 hc         1 0JS       0.075450
     53 H082        19.6280     8.1500    -1.2380 hc         1 0JS       0.075450
     54 H091        21.9950     9.7690    -0.0420 hc         1 0JS       0.075450
     55 H092        20.4720     9.2890     0.8340 hc         1 0JS       0.075450
     56 H232        23.3140    11.0030     6.5930 h1         1 0JS       0.042033
     57 H233        22.1940    11.0840     7.9640 h1         1 0JS       0.042033
     58 H231        23.8830    10.5860     8.2190 h1         1 0JS       0.042033
     59 H313        19.0310    10.1140     3.2480 hc         1 0JS       0.058700
     60 H311        17.8340     8.8680     3.5420 hc         1 0JS       0.058700
     61 H312        18.4830     9.7970     4.9040 hc         1 0JS       0.058700
@<TRIPOS>BOND
     1     1     2 1   
     2     1    21 2   
     3     2    24 1   
     4     2    26 2   
     5     3     4 2   
     6     3    26 1   
     7     3    28 1   
     8     4     5 1   
     9     4     7 1   
    10     5     6 1   
    11     5    27 2   
    12     6    32 1   
    13     6    33 1   
    14     6    34 1   
    15     7    11 ar  
    16     7    22 ar  
    17     8     9 ar  
    18     8    22 ar  
    19     8    35 1   
    20     9    10 ar  
    21     9    31 1   
    22    10    11 ar  
    23    10    36 1   
    24    11    30 1   
    25    12    30 1   
    26    12    37 1   
    27    12    38 1   
    28    12    39 1   
    29    13    14 1   
    30    13    40 1   
    31    13    41 1   
    32    13    42 1   
    33    14    15 1   
    34    14    43 1   
    35    14    44 1   
    36    15    16 1   
    37    15    45 1   
    38    15    46 1   
    39    16    25 1   
    40    16    47 1   
    41    16    48 1   
    42    17    18 1   
    43    17    25 1   
    44    17    49 1   
    45    17    50 1   
    46    18    19 1   
    47    18    20 1   
    48    18    51 1   
    49    19    20 1   
    50    19    52 1   
    51    19    53 1   
    52    20    54 1   
    53    20    55 1   
    54    21    25 1   
    55    21    28 1   
    56    22    29 1   
    57    23    29 1   
    58    23    56 1   
    59    23    57 1   
    60    23    58 1   
    61    24    59 1   
    62    24    60 1   
    63    24    61 1   
    64    27    28 1   
@<TRIPOS>SUBSTRUCTURE
     1 0JS         1 TEMP              0 ****  ****    0 ROOT
