@<TRIPOS>MOLECULE
0JS
   61    64     1     0     0
SMALL
No Charge or Current Charge


@<TRIPOS>ATOM
      1 N11         20.5120     7.9240     3.0500 nc         1 0JS      -0.345000
      2 C12         20.2950     8.6060     4.2410 cc         1 0JS       0.199300
      3 C14         21.6230     7.2540     5.3760 cd         1 0JS       0.181500
      4 C15         22.2110     6.6360     6.4430 cc         1 0JS      -0.223800
      5 C16         22.7390     5.4240     5.9000 cc         1 0JS       0.429600
      6 C19         23.4780     4.3950     6.7100 c3         1 0JS      -0.107400
      7 C20         21.9850     7.0730     7.8380 ca         1 0JS      -0.058800
      8 C24         22.0910     8.8110     9.5650 ca         1 0JS      -0.221000
      9 C25         21.5620     7.9180    10.5010 ca         1 0JS       0.061100
     10 C27         21.2420     6.6090    10.1270 ca         1 0JS      -0.221000
     11 C28         21.4480     6.1800     8.7990 ca         1 0JS       0.192600
     12 C30         20.5080     3.9410     9.2900 c3         1 0JS       0.147400
     13 C01         24.8530     3.1100     2.4910 c3         1 0JS      -0.090100
     14 C02         23.8080     3.0010     1.3610 c3         1 0JS      -0.069400
     15 C03         22.5310     3.8440     1.5930 c3         1 0JS      -0.094400
     16 C04         22.7680     5.3740     1.5740 c3         1 0JS       0.232800
     17 C06         20.6500     6.3710     0.6710 c3         1 0JS       0.258800
     18 C07         21.0870     7.5090    -0.2520 cx         1 0JS      -0.155700
     19 C08         20.1580     8.0290    -1.3260 cx         1 0JS      -0.121400
     20 C09         20.5000     8.8990    -0.1390 cx         1 0JS      -0.121400
     21 C10         21.3190     6.8570     3.0600 cd         1 0JS       0.605400
     22 C21         22.3080     8.3980     8.2330 ca         1 0JS       0.192600
     23 C23         23.2380    10.6080     7.6090 c3         1 0JS       0.147400
     24 C31         19.3680     9.7830     4.1100 c3         1 0JS      -0.132400
     25 N05         21.5450     6.1730     1.8380 nh         1 0JS      -0.772300
     26 N13         20.7890     8.3390     5.4510 nd         1 0JS      -0.190000
     27 N17         22.5830     5.2950     4.5850 nd         1 0JS      -0.595100
     28 N18         21.9090     6.4780     4.2890 na         1 0JS      -0.137600
     29 O22         22.8970     9.2440     7.3090 os         1 0JS      -0.325600
     30 O29         21.0710     4.9130     8.3920 os         1 0JS      -0.325600
     31 Br2         21.2750     8.4880    12.3030 br         1 0JS      -0.108100
     32 H192        24.3780     4.0600     6.1810 hc         1 0JS       0.051033
     33 H193        23.7940     4.8000     7.6780 hc         1 0JS       0.051033
     34 H191        22.8480     3.5170     6.8910 hc         1 0JS       0.051033
     35 H241        22.3390     9.8150     9.8940 ha         1 0JS       0.133500
     36 H271        20.8230     5.9470    10.8780 ha         1 0JS       0.133500
     37 H302        20.2950     3.0080     8.7540 h1         1 0JS       0.042033
     38 H303        21.2060     3.7130    10.1060 h1         1 0JS       0.042033
     39 H301        19.5660     4.3070     9.7210 h1         1 0JS       0.042033
     40 H013        25.6910     2.4290     2.2990 hc         1 0JS       0.034700
     41 H011        25.2550     4.1270     2.5650 hc         1 0JS       0.034700
     42 H012        24.4090     2.8400     3.4570 hc         1 0JS       0.034700
     43 H021        23.5160     1.9490     1.2580 hc         1 0JS       0.036700
     44 H022        24.2710     3.2930     0.4100 hc         1 0JS       0.036700
     45 H032        21.8040     3.5900     0.8130 hc         1 0JS       0.051200
     46 H031        22.0750     3.5520     2.5450 hc         1 0JS       0.051200
     47 H041        23.5590     5.6400     2.2860 h1         1 0JS       0.064200
     48 H042        23.1700     5.6370     0.5860 h1         1 0JS       0.064200
     49 H062        19.6190     6.5510     1.0070 h1         1 0JS       0.066200
     50 H061        20.6120     5.4500     0.0740 h1         1 0JS       0.066200
     51 H071        22.1370     7.4420    -0.5250 hc         1 0JS       0.075700
     52 H081        20.5920     8.2910    -2.2880 hc         1 0JS       0.075450
     53 H082        19.1520     7.6190    -1.3780 hc         1 0JS       0.075450
     54 H091        21.1660     9.7430    -0.3010 hc         1 0JS       0.075450
     55 H092        19.7170     9.0740     0.5950 hc         1 0JS       0.075450
     56 H232        23.6730    11.0930     6.7270 h1         1 0JS       0.042033
     57 H233        22.3460    11.1770     7.9040 h1         1 0JS       0.042033
     58 H231        23.9740    10.6580     8.4210 h1         1 0JS       0.042033
     59 H313        19.7080    10.4610     3.3180 hc         1 0JS       0.058700
     60 H311        18.3540     9.4510     3.8580 hc         1 0JS       0.058700
     61 H312        19.3110    10.3610     5.0400 hc         1 0JS       0.058700
@<TRIPOS>BOND
     1     1     2 1   
     2     1    21 2   
     3     2    24 1   
     4     2    26 2   
     5     3     4 2   
     6     3    26 1   
     7     3    28 1   
     8     4     5 1   
     9     4     7 1   
    10     5     6 1   
    11     5    27 2   
    12     6    32 1   
    13     6    33 1   
    14     6    34 1   
    15     7    11 ar  
    16     7    22 ar  
    17     8     9 ar  
    18     8    22 ar  
    19     8    35 1   
    20     9    10 ar  
    21     9    31 1   
    22    10    11 ar  
    23    10    36 1   
    24    11    30 1   
    25    12    30 1   
    26    12    37 1   
    27    12    38 1   
    28    12    39 1   
    29    13    14 1   
    30    13    40 1   
    31    13    41 1   
    32    13    42 1   
    33    14    15 1   
    34    14    43 1   
    35    14    44 1   
    36    15    16 1   
    37    15    45 1   
    38    15    46 1   
    39    16    25 1   
    40    16    47 1   
    41    16    48 1   
    42    17    18 1   
    43    17    25 1   
    44    17    49 1   
    45    17    50 1   
    46    18    19 1   
    47    18    20 1   
    48    18    51 1   
    49    19    20 1   
    50    19    52 1   
    51    19    53 1   
    52    20    54 1   
    53    20    55 1   
    54    21    25 1   
    55    21    28 1   
    56    22    29 1   
    57    23    29 1   
    58    23    56 1   
    59    23    57 1   
    60    23    58 1   
    61    24    59 1   
    62    24    60 1   
    63    24    61 1   
    64    27    28 1   
@<TRIPOS>SUBSTRUCTURE
     1 0JS         1 TEMP              0 ****  ****    0 ROOT
