@<TRIPOS>MOLECULE
0JT
   24    23     1     0     0
SMALL
No Charge or Current Charge


@<TRIPOS>ATOM
      1 N22         -1.2540     1.8610    -0.1220 n8         1 0JT      -1.012200
      2 C18         -1.1960     0.4440     0.2870 c3         1 0JT       0.154500
      3 C19         -2.4250    -0.3490    -0.2770 c3         1 0JT      -0.051700
      4 C21         -2.4020    -1.8530     0.1000 c3         1 0JT      -0.081600
      5 C20         -3.7810     0.2690     0.1590 c3         1 0JT      -0.081600
      6 C17          0.1860    -0.1440    -0.1220 c3         1 0JT      -0.091400
      7 C16          1.4200     0.6250     0.4350 c3         1 0JT      -0.210400
      8 C14          2.7150    -0.1520     0.1300 c          1 0JT       0.717000
      9 O15          3.0900    -0.9880     0.9370 o          1 0JT      -0.740500
     10 H29         -0.3600     2.2950     0.1340 hn         1 0JT       0.390000
     11 H30         -1.2530     0.4190     1.3850 h1         1 0JT       0.042700
     12 H31         -2.3850    -0.2960    -1.3730 hc         1 0JT       0.036700
     13 H32         -3.3180    -2.3530    -0.2360 hc         1 0JT       0.026867
     14 H33         -1.5620    -2.3710    -0.3760 hc         1 0JT       0.026867
     15 H34         -2.3220    -1.9820     1.1860 hc         1 0JT       0.026867
     16 H35         -3.8920     1.2960    -0.2080 hc         1 0JT       0.026867
     17 H36         -4.6200    -0.3120    -0.2420 hc         1 0JT       0.026867
     18 H37         -3.8680     0.2830     1.2530 hc         1 0JT       0.026867
     19 H38          0.2530    -1.1740     0.2470 hc         1 0JT       0.045700
     20 H39          0.2550    -0.2000    -1.2150 hc         1 0JT       0.045700
     21 H40          1.4400     1.5970    -0.0720 hc         1 0JT       0.013700
     22 H41          1.2660     0.6940     1.5200 hc         1 0JT       0.013700
     23 H2          -1.2520     1.9040    -1.1460 hn         1 0JT       0.390000
     24 OXT          3.2830     0.0670    -0.9300 o          1 0JT      -0.740500
@<TRIPOS>BOND
     1     1     2 1   
     2     1    10 1   
     3     1    23 1   
     4     2     3 1   
     5     2     6 1   
     6     2    11 1   
     7     3     4 1   
     8     3     5 1   
     9     3    12 1   
    10     4    13 1   
    11     4    14 1   
    12     4    15 1   
    13     5    16 1   
    14     5    17 1   
    15     5    18 1   
    16     6     7 1   
    17     6    19 1   
    18     6    20 1   
    19     7     8 1   
    20     7    21 1   
    21     7    22 1   
    22     8     9 1   
    23     8    24 1   
@<TRIPOS>SUBSTRUCTURE
     1 0JT         1 TEMP              0 ****  ****    0 ROOT
