@<TRIPOS>MOLECULE
0JT
   24    23     1     0     0
SMALL
bcc


@<TRIPOS>ATOM
      1 N22         -1.2990     1.8030    -0.3720 n8         1 0JT      -0.901800
      2 C18         -1.2040     0.4650     0.2070 c3         1 0JT       0.154500
      3 C19         -2.4220    -0.3540    -0.2520 c3         1 0JT      -0.051700
      4 C21         -2.3510    -1.8190     0.1690 c3         1 0JT      -0.081600
      5 C20         -3.7230     0.2630     0.2570 c3         1 0JT      -0.081600
      6 C17          0.1260    -0.2450    -0.0810 c3         1 0JT      -0.091400
      7 C16          1.3530     0.5860     0.2600 c3         1 0JT      -0.210400
      8 C14          2.7080    -0.1370     0.1410 c          1 0JT       0.927600
      9 O15          2.7050    -1.3520    -0.1360 o          1 0JT      -0.845800
     10 H29         -0.5960     2.4040     0.0400 hn         1 0JT       0.334800
     11 H30         -1.2830     0.5880     1.2960 h1         1 0JT       0.042700
     12 H31         -2.4370    -0.3210    -1.3500 hc         1 0JT       0.036700
     13 H32         -3.2740    -2.3380    -0.0970 hc         1 0JT       0.026867
     14 H33         -1.5300    -2.3520    -0.3090 hc         1 0JT       0.026867
     15 H34         -2.2230    -1.9130     1.2510 hc         1 0JT       0.026867
     16 H35         -3.7960     1.3170    -0.0030 hc         1 0JT       0.026867
     17 H36         -4.5900    -0.2530    -0.1600 hc         1 0JT       0.026867
     18 H37         -3.7870     0.1810     1.3460 hc         1 0JT       0.026867
     19 H38          0.1640    -1.1760     0.4890 hc         1 0JT       0.045700
     20 H39          0.1570    -0.5350    -1.1390 hc         1 0JT       0.045700
     21 H40          1.3990     1.4780    -0.3720 hc         1 0JT       0.013700
     22 H41          1.2660     0.9700     1.2860 hc         1 0JT       0.013700
     23 H2          -1.0640     1.7520    -1.3590 hn         1 0JT       0.334800
     24 OXT          3.7200     0.5700     0.3420 o          1 0JT      -0.845800
@<TRIPOS>BOND
     1     1     2 1   
     2     1    10 1   
     3     1    23 1   
     4     2     3 1   
     5     2     6 1   
     6     2    11 1   
     7     3     4 1   
     8     3     5 1   
     9     3    12 1   
    10     4    13 1   
    11     4    14 1   
    12     4    15 1   
    13     5    16 1   
    14     5    17 1   
    15     5    18 1   
    16     6     7 1   
    17     6    19 1   
    18     6    20 1   
    19     7     8 1   
    20     7    21 1   
    21     7    22 1   
    22     8     9 1   
    23     8    24 1   
@<TRIPOS>SUBSTRUCTURE
     1 0JT         1 TEMP              0 ****  ****    0 ROOT
