@<TRIPOS>MOLECULE
0JU
   20    19     1     0     0
SMALL
bcc


@<TRIPOS>ATOM
      1 C           -2.5620     0.6290     0.5120 c2         1 0JU       0.383200
      2 NF          -3.6090     0.5750    -0.1930 n2         1 0JU      -0.757100
      3 CA          -1.4560    -0.3890     0.3900 c3         1 0JU       0.102200
      4 N           -1.6980    -1.4490    -0.5640 n8         1 0JU      -0.873800
      5 CB          -0.1460     0.3410     0.0820 c3         1 0JU      -0.056400
      6 CG           1.0600    -0.5850     0.1350 c3         1 0JU      -0.155400
      7 CD           2.3580     0.1140    -0.2050 c          1 0JU       0.669100
      8 OE           2.4090     1.0670    -0.9710 o          1 0JU      -0.610100
      9 NE           3.4520    -0.4080     0.3720 nt         1 0JU      -0.680000
     10 H1          -2.3830     1.4070     1.2610 h4         1 0JU      -0.035200
     11 H2          -4.2330     1.3430     0.0380 hn         1 0JU       0.381400
     12 H3          -1.3550    -0.8440     1.3850 h1         1 0JU       0.063700
     13 H4          -2.5600    -1.9220    -0.3240 hn         1 0JU       0.350300
     14 H5          -1.8710    -1.0390    -1.4750 hn         1 0JU       0.350300
     15 H7          -0.2190     0.8050    -0.9060 hc         1 0JU       0.056200
     16 H8          -0.0180     1.1550     0.7990 hc         1 0JU       0.056200
     17 H9           1.1280    -1.0560     1.1190 hc         1 0JU       0.065700
     18 H10          0.9270    -1.4010    -0.5800 hc         1 0JU       0.065700
     19 H11          3.4000    -1.1970     0.9920 hn         1 0JU       0.311500
     20 H12          4.3660    -0.0440     0.1590 hn         1 0JU       0.311500
@<TRIPOS>BOND
     1     1     2 2   
     2     1     3 1   
     3     1    10 1   
     4     2    11 1   
     5     3     4 1   
     6     3     5 1   
     7     3    12 1   
     8     4    13 1   
     9     4    14 1   
    10     5     6 1   
    11     5    15 1   
    12     5    16 1   
    13     6     7 1   
    14     6    17 1   
    15     6    18 1   
    16     7     8 2   
    17     7     9 1   
    18     9    19 1   
    19     9    20 1   
@<TRIPOS>SUBSTRUCTURE
     1 0JU         1 TEMP              0 ****  ****    0 ROOT
