@<TRIPOS>MOLECULE
0JU
   20    19     1     0     0
SMALL
No Charge or Current Charge


@<TRIPOS>ATOM
      1 C           -2.4780     0.5980     0.6890 c2         1 0JU       0.383200
      2 NF          -3.3160     1.0490    -0.1810 n2         1 0JU      -0.757100
      3 CA          -1.4230    -0.4830     0.3810 c3         1 0JU       0.102200
      4 N           -1.8600    -1.4610    -0.6640 n8         1 0JU      -0.984200
      5 CB          -0.0610     0.1560    -0.0010 c3         1 0JU      -0.056400
      6 CG           1.1120    -0.8540    -0.1220 c3         1 0JU      -0.155400
      7 CD           2.4320    -0.1390    -0.4160 c          1 0JU       0.602100
      8 OE           2.7760     0.2010    -1.5360 o          1 0JU      -0.610100
      9 NE           3.2270     0.1090     0.6460 nt         1 0JU      -0.613000
     10 H1          -2.4980     0.9880     1.7040 h4         1 0JU      -0.035200
     11 H2          -3.9150     1.7610     0.2640 hn         1 0JU       0.381400
     12 H3          -1.2660    -1.0490     1.3100 h1         1 0JU       0.063700
     13 H4          -2.7290    -1.9130    -0.3530 hn         1 0JU       0.405500
     14 H5          -2.1750    -0.9240    -1.4820 hn         1 0JU       0.405500
     15 H7          -0.1690     0.7050    -0.9460 hc         1 0JU       0.056200
     16 H8           0.1980     0.9010     0.7620 hc         1 0JU       0.056200
     17 H9           1.1890    -1.3890     0.8320 hc         1 0JU       0.065700
     18 H10          0.9010    -1.5560    -0.9370 hc         1 0JU       0.065700
     19 H11          2.9380    -0.1740     1.5710 hn         1 0JU       0.311500
     20 H12          4.1090     0.5780     0.5050 hn         1 0JU       0.311500
@<TRIPOS>BOND
     1     1     2 2   
     2     1     3 1   
     3     1    10 1   
     4     2    11 1   
     5     3     4 1   
     6     3     5 1   
     7     3    12 1   
     8     4    13 1   
     9     4    14 1   
    10     5     6 1   
    11     5    15 1   
    12     5    16 1   
    13     6     7 1   
    14     6    17 1   
    15     6    18 1   
    16     7     8 2   
    17     7     9 1   
    18     9    19 1   
    19     9    20 1   
@<TRIPOS>SUBSTRUCTURE
     1 0JU         1 TEMP              0 ****  ****    0 ROOT
