@<TRIPOS>MOLECULE
0JV
   87    90     1     0     0
SMALL
No Charge or Current Charge


@<TRIPOS>ATOM
      1 O39         21.4810    29.4550    15.2680 os         1 0JV      -0.343100
      2 C40         22.7860    29.8320    15.7440 c3         1 0JV       0.146900
      3 C2          21.0130    28.1600    15.3510 ca         1 0JV       0.194100
      4 C3          19.7270    27.8960    14.8580 ca         1 0JV      -0.193000
      5 C4          19.1920    26.5990    14.9130 ca         1 0JV       0.023000
      6 C5          19.9510    25.5520    15.4730 ca         1 0JV      -0.361500
      7 C6          21.2470    25.8090    15.9620 ca         1 0JV       0.023000
      8 C7          21.7760    27.1090    15.9040 ca         1 0JV      -0.193000
      9 S8          19.2720    23.8880    15.5540 sy         1 0JV       1.198600
     10 O9          18.1910    23.7430    14.5750 o          1 0JV      -0.544500
     11 O10         20.3660    22.9110    15.5990 o          1 0JV      -0.544500
     12 N11         18.5300    23.8580    17.0960 n3         1 0JV      -0.743500
     13 C12         19.5120    23.9390    18.2150 c3         1 0JV       0.204800
     14 C13         19.0130    23.5150    19.6230 c3         1 0JV      -0.062700
     15 C14         18.5060    22.0510    19.6520 c3         1 0JV      -0.091100
     16 C15         20.1160    23.7290    20.6840 c3         1 0JV      -0.091100
     17 C16         17.3760    24.7990    17.2300 c3         1 0JV       0.183800
     18 C17         16.0960    24.1960    17.8900 c3         1 0JV       0.148300
     19 O18         15.0900    25.2200    18.0560 oh         1 0JV      -0.665000
     20 C19         15.5100    22.9790    17.1080 c3         1 0JV       0.142700
     21 N20         14.5440    22.2530    17.9420 ns         1 0JV      -0.498900
     22 C21         14.4980    20.8980    18.0800 c          1 0JV       0.635100
     23 O22         15.3280    20.1180    17.6370 o          1 0JV      -0.550000
     24 O23         13.3690    20.5770    18.7770 os         1 0JV      -0.462100
     25 C24         13.0480    19.1630    18.7860 c5         1 0JV       0.192300
     26 C25         11.8320    18.9610    19.7460 c5         1 0JV      -0.093400
     27 C26         10.9090    17.9420    19.0060 c5         1 0JV       0.163300
     28 O27          9.8190    18.6750    18.4100 os         1 0JV      -0.455000
     29 C28          9.3700    17.9390    17.2470 c5         1 0JV       0.132600
     30 C29         10.5850    17.0510    16.8010 c5         1 0JV       0.099700
     31 C30         11.7320    17.4600    17.7920 c5         1 0JV      -0.108700
     32 C31         12.4770    18.7760    17.3930 c5         1 0JV      -0.097400
     33 N41         10.9770    17.4760    15.4470 ns         1 0JV      -0.488900
     34 C42         10.2190    17.0570    14.3870 c          1 0JV       0.633100
     35 O43          9.2330    16.3400    14.4550 o          1 0JV      -0.542000
     36 O44         10.7450    17.5790    13.2460 os         1 0JV      -0.465100
     37 C45         10.0920    17.2690    12.0020 c3         1 0JV       0.170900
     38 C32         14.8720    23.3270    15.7340 c3         1 0JV      -0.039100
     39 C33         13.0050    21.7820    14.9330 ca         1 0JV      -0.100000
     40 C34         12.5590    20.6390    14.2460 ca         1 0JV      -0.118500
     41 C35         13.4850    19.7990    13.6050 ca         1 0JV      -0.118000
     42 C36         14.8550    20.1040    13.6490 ca         1 0JV      -0.118500
     43 C37         15.3010    21.2480    14.3340 ca         1 0JV      -0.100000
     44 C38         14.3790    22.0940    14.9800 ca         1 0JV      -0.081300
     45 H1          22.9540    30.9040    15.5830 h1         1 0JV       0.048367
     46 H2          22.8820    29.6310    16.8190 h1         1 0JV       0.048367
     47 H3          23.5710    29.2810    15.2110 h1         1 0JV       0.048367
     48 H4          19.1410    28.7030    14.4280 ha         1 0JV       0.129000
     49 H5          18.1930    26.4160    14.5190 ha         1 0JV       0.133500
     50 H6          21.8480    25.0070    16.3900 ha         1 0JV       0.133500
     51 H7          22.7750    27.2800    16.2910 ha         1 0JV       0.129000
     52 H8          20.3780    23.2980    18.0040 h1         1 0JV       0.050200
     53 H9          19.8990    24.9650    18.2860 h1         1 0JV       0.050200
     54 H10         18.1880    24.1750    19.9110 hc         1 0JV       0.040700
     55 H11         18.1110    21.7980    20.6430 hc         1 0JV       0.040867
     56 H12         17.7060    21.8900    18.9210 hc         1 0JV       0.040867
     57 H13         19.3200    21.3540    19.4190 hc         1 0JV       0.040867
     58 H14         19.7460    23.4760    21.6850 hc         1 0JV       0.040867
     59 H15         20.9910    23.1010    20.4730 hc         1 0JV       0.040867
     60 H16         20.4420    24.7760    20.7000 hc         1 0JV       0.040867
     61 H17         17.6860    25.6810    17.8070 h1         1 0JV       0.055200
     62 H18         17.0660    25.1870    16.2530 h1         1 0JV       0.055200
     63 H19         16.3730    23.8190    18.8790 h1         1 0JV       0.054700
     64 H20         15.3850    25.8090    18.7860 ho         1 0JV       0.442000
     65 H21         16.3520    22.3020    16.9090 h1         1 0JV       0.098700
     66 H22         13.7870    22.7700    18.3680 hn         1 0JV       0.332500
     67 H23         13.9130    18.5530    19.0860 h1         1 0JV       0.073700
     68 H24         12.1650    18.5650    20.7110 hc         1 0JV       0.069200
     69 H25         11.3060    19.8990    19.9540 hc         1 0JV       0.069200
     70 H26         10.5220    17.1290    19.6380 h1         1 0JV       0.068700
     71 H27          9.0400    18.6490    16.4770 h1         1 0JV       0.059700
     72 H28          8.5120    17.3140    17.5300 h1         1 0JV       0.059700
     73 H29         10.3440    15.9800    16.8700 h1         1 0JV       0.088700
     74 H30         12.4150    16.6350    18.0300 hc         1 0JV       0.072700
     75 H31         13.2680    18.6010    16.6550 hc         1 0JV       0.064200
     76 H32         11.8160    19.5580    17.0000 hc         1 0JV       0.064200
     77 H33         11.7670    18.0690    15.2340 hn         1 0JV       0.334500
     78 H34         10.6140    17.7500    11.1660 h1         1 0JV       0.049700
     79 H35         10.0860    16.1860    11.8220 h1         1 0JV       0.049700
     80 H36          9.0540    17.6260    12.0050 h1         1 0JV       0.049700
     81 H37         15.5990    23.8610    15.1140 hc         1 0JV       0.065200
     82 H38         14.0420    24.0260    15.8890 hc         1 0JV       0.065200
     83 H40         11.4970    20.4060    14.2110 ha         1 0JV       0.110000
     84 H41         13.1420    18.9160    13.0700 ha         1 0JV       0.114000
     85 H42         15.5730    19.4540    13.1530 ha         1 0JV       0.110000
     86 H43         16.3650    21.4750    14.3650 ha         1 0JV       0.122500
     87 H39         12.2820    22.4230    15.4330 ha         1 0JV       0.122500
@<TRIPOS>BOND
     1     1     2 1   
     2     1     3 1   
     3     2    45 1   
     4     2    46 1   
     5     2    47 1   
     6     3     4 ar  
     7     3     8 ar  
     8     4     5 ar  
     9     4    48 1   
    10     5     6 ar  
    11     5    49 1   
    12     6     7 ar  
    13     6     9 1   
    14     7     8 ar  
    15     7    50 1   
    16     8    51 1   
    17     9    10 2   
    18     9    11 2   
    19     9    12 1   
    20    12    13 1   
    21    12    17 1   
    22    13    14 1   
    23    13    52 1   
    24    13    53 1   
    25    14    15 1   
    26    14    16 1   
    27    14    54 1   
    28    15    55 1   
    29    15    56 1   
    30    15    57 1   
    31    16    58 1   
    32    16    59 1   
    33    16    60 1   
    34    17    18 1   
    35    17    61 1   
    36    17    62 1   
    37    18    19 1   
    38    18    20 1   
    39    18    63 1   
    40    19    64 1   
    41    20    21 1   
    42    20    38 1   
    43    20    65 1   
    44    21    22 1   
    45    21    66 1   
    46    22    23 2   
    47    22    24 1   
    48    24    25 1   
    49    25    26 1   
    50    25    32 1   
    51    25    67 1   
    52    26    27 1   
    53    26    68 1   
    54    26    69 1   
    55    27    28 1   
    56    27    31 1   
    57    27    70 1   
    58    28    29 1   
    59    29    30 1   
    60    29    71 1   
    61    29    72 1   
    62    30    31 1   
    63    30    33 1   
    64    30    73 1   
    65    31    32 1   
    66    31    74 1   
    67    32    75 1   
    68    32    76 1   
    69    33    34 1   
    70    33    77 1   
    71    34    35 2   
    72    34    36 1   
    73    36    37 1   
    74    37    78 1   
    75    37    79 1   
    76    37    80 1   
    77    38    44 1   
    78    38    81 1   
    79    38    82 1   
    80    39    40 ar  
    81    39    44 ar  
    82    39    87 1   
    83    40    41 ar  
    84    40    83 1   
    85    41    42 ar  
    86    41    84 1   
    87    42    43 ar  
    88    42    85 1   
    89    43    44 ar  
    90    43    86 1   
@<TRIPOS>SUBSTRUCTURE
     1 0JV         1 TEMP              0 ****  ****    0 ROOT
