@<TRIPOS>MOLECULE
0JV
   87    90     1     0     0
SMALL
abcg2


@<TRIPOS>ATOM
      1 O39         21.2830    29.0250    14.6870 os         1 0JV      -0.343100
      2 C40         22.6160    29.3600    15.0840 c3         1 0JV       0.146900
      3 C2          20.8030    27.8010    14.9980 ca         1 0JV       0.194100
      4 C3          19.4950    27.5310    14.5760 ca         1 0JV      -0.193000
      5 C4          18.9150    26.3070    14.8440 ca         1 0JV       0.023000
      6 C5          19.6400    25.3330    15.5380 ca         1 0JV      -0.361500
      7 C6          20.9400    25.5960    15.9570 ca         1 0JV       0.023000
      8 C7          21.5270    26.8250    15.6890 ca         1 0JV      -0.193000
      9 S8          18.8720    23.8010    15.9540 sy         1 0JV       1.198600
     10 O9          17.8060    23.5660    15.0090 o          1 0JV      -0.544500
     11 O10         19.9070    22.8040    16.1070 o          1 0JV      -0.544500
     12 N11         18.1680    23.9940    17.4300 n3         1 0JV      -0.743500
     13 C12         19.0840    24.1460    18.5760 c3         1 0JV       0.204800
     14 C13         18.6100    23.4300    19.8430 c3         1 0JV      -0.062700
     15 C14         18.4360    21.9310    19.6100 c3         1 0JV      -0.091100
     16 C15         19.6120    23.7080    20.9650 c3         1 0JV      -0.091100
     17 C16         16.9270    24.7840    17.4840 c3         1 0JV       0.183800
     18 C17         15.7260    23.9790    17.9910 c3         1 0JV       0.148300
     19 O18         14.6180    24.8590    18.1930 oh         1 0JV      -0.665000
     20 C19         15.2720    22.8580    17.0550 c3         1 0JV       0.142700
     21 N20         14.3490    21.9880    17.7640 ns         1 0JV      -0.498900
     22 C21         14.5750    20.6800    17.9910 c          1 0JV       0.635100
     23 O22         15.5870    20.0660    17.6850 o          1 0JV      -0.550000
     24 O23         13.5180    20.1280    18.6260 os         1 0JV      -0.462100
     25 C24         13.6030    18.7210    18.9630 c5         1 0JV       0.192300
     26 C25         12.4960    18.4390    19.9700 c5         1 0JV      -0.093400
     27 C26         11.2590    18.1340    19.1350 c5         1 0JV       0.163300
     28 O27         10.5870    19.3420    18.6940 os         1 0JV      -0.455000
     29 C28         10.6570    19.4500    17.2710 c5         1 0JV       0.132600
     30 C29         10.8440    18.0090    16.7890 c5         1 0JV       0.099700
     31 C30         11.7770    17.4380    17.8630 c5         1 0JV      -0.108700
     32 C31         13.2760    17.8260    17.7550 c5         1 0JV      -0.097400
     33 N41         11.3100    17.8600    15.4310 ns         1 0JV      -0.488900
     34 C42         10.4660    17.7180    14.3880 c          1 0JV       0.633100
     35 O43          9.2490    17.6510    14.4620 o          1 0JV      -0.542000
     36 O44         11.1530    17.6440    13.2270 os         1 0JV      -0.465100
     37 C45         10.3670    17.5550    12.0280 c3         1 0JV       0.170900
     38 C32         14.6340    23.3600    15.7490 c3         1 0JV      -0.039100
     39 C33         12.9080    21.8450    14.7040 ca         1 0JV      -0.100000
     40 C34         12.5480    20.7700    13.8980 ca         1 0JV      -0.118500
     41 C35         13.5250    20.0500    13.2190 ca         1 0JV      -0.118000
     42 C36         14.8620    20.4160    13.3520 ca         1 0JV      -0.118500
     43 C37         15.2170    21.4910    14.1570 ca         1 0JV      -0.100000
     44 C38         14.2430    22.2210    14.8440 ca         1 0JV      -0.081300
     45 H1          22.7810    30.3750    14.7340 h1         1 0JV       0.048367
     46 H2          22.7180    29.3230    16.1710 h1         1 0JV       0.048367
     47 H3          23.3400    28.6860    14.6220 h1         1 0JV       0.048367
     48 H4          18.9510    28.2930    14.0330 ha         1 0JV       0.129000
     49 H5          17.9100    26.0990    14.5050 ha         1 0JV       0.133500
     50 H6          21.5040    24.8400    16.4840 ha         1 0JV       0.133500
     51 H7          22.5390    27.0090    16.0160 ha         1 0JV       0.129000
     52 H8          20.0490    23.7310    18.2920 h1         1 0JV       0.050200
     53 H9          19.2230    25.2130    18.7800 h1         1 0JV       0.050200
     54 H10         17.6490    23.8560    20.1450 hc         1 0JV       0.040700
     55 H11         18.0950    21.4380    20.5220 hc         1 0JV       0.040867
     56 H12         17.7110    21.7260    18.8230 hc         1 0JV       0.040867
     57 H13         19.3870    21.4790    19.3150 hc         1 0JV       0.040867
     58 H14         19.2850    23.2420    21.8950 hc         1 0JV       0.040867
     59 H15         20.5960    23.3030    20.7120 hc         1 0JV       0.040867
     60 H16         19.7230    24.7800    21.1420 hc         1 0JV       0.040867
     61 H17         17.0860    25.6250    18.1640 h1         1 0JV       0.055200
     62 H18         16.6970    25.1990    16.5060 h1         1 0JV       0.055200
     63 H19         15.9910    23.5070    18.9390 h1         1 0JV       0.054700
     64 H20         14.7960    25.4010    18.9710 ho         1 0JV       0.442000
     65 H21         16.1460    22.2540    16.8200 h1         1 0JV       0.098700
     66 H22         13.4600    22.3650    18.0510 hn         1 0JV       0.332500
     67 H23         14.5990    18.5330    19.3560 h1         1 0JV       0.073700
     68 H24         12.7610    17.5430    20.5370 hc         1 0JV       0.069200
     69 H25         12.3450    19.2550    20.6750 hc         1 0JV       0.069200
     70 H26         10.5270    17.5390    19.6840 h1         1 0JV       0.068700
     71 H27         11.5070    20.0700    16.9680 h1         1 0JV       0.059700
     72 H28          9.7350    19.9040    16.9090 h1         1 0JV       0.059700
     73 H29          9.8860    17.4950    16.8540 h1         1 0JV       0.088700
     74 H30         11.6680    16.3570    17.9280 hc         1 0JV       0.072700
     75 H31         13.8950    16.9290    17.7930 hc         1 0JV       0.064200
     76 H32         13.5330    18.3440    16.8320 hc         1 0JV       0.064200
     77 H33         12.2820    18.0210    15.2170 hn         1 0JV       0.334500
     78 H34         11.0860    17.5260    11.2140 h1         1 0JV       0.049700
     79 H35          9.7630    16.6480    12.0300 h1         1 0JV       0.049700
     80 H36          9.7210    18.4270    11.9290 h1         1 0JV       0.049700
     81 H37         15.3480    24.0090    15.2430 hc         1 0JV       0.065200
     82 H38         13.7550    23.9580    15.9910 hc         1 0JV       0.065200
     83 H40         11.5060    20.4910    13.8050 ha         1 0JV       0.110000
     84 H41         13.2450    19.2080    12.6000 ha         1 0JV       0.114000
     85 H42         15.6300    19.8610    12.8260 ha         1 0JV       0.110000
     86 H43         16.2580    21.7710    14.2620 ha         1 0JV       0.122500
     87 H39         12.1430    22.3990    15.2360 ha         1 0JV       0.122500
@<TRIPOS>BOND
     1     1     2 1   
     2     1     3 1   
     3     2    45 1   
     4     2    46 1   
     5     2    47 1   
     6     3     4 ar  
     7     3     8 ar  
     8     4     5 ar  
     9     4    48 1   
    10     5     6 ar  
    11     5    49 1   
    12     6     7 ar  
    13     6     9 1   
    14     7     8 ar  
    15     7    50 1   
    16     8    51 1   
    17     9    10 2   
    18     9    11 2   
    19     9    12 1   
    20    12    13 1   
    21    12    17 1   
    22    13    14 1   
    23    13    52 1   
    24    13    53 1   
    25    14    15 1   
    26    14    16 1   
    27    14    54 1   
    28    15    55 1   
    29    15    56 1   
    30    15    57 1   
    31    16    58 1   
    32    16    59 1   
    33    16    60 1   
    34    17    18 1   
    35    17    61 1   
    36    17    62 1   
    37    18    19 1   
    38    18    20 1   
    39    18    63 1   
    40    19    64 1   
    41    20    21 1   
    42    20    38 1   
    43    20    65 1   
    44    21    22 1   
    45    21    66 1   
    46    22    23 2   
    47    22    24 1   
    48    24    25 1   
    49    25    26 1   
    50    25    32 1   
    51    25    67 1   
    52    26    27 1   
    53    26    68 1   
    54    26    69 1   
    55    27    28 1   
    56    27    31 1   
    57    27    70 1   
    58    28    29 1   
    59    29    30 1   
    60    29    71 1   
    61    29    72 1   
    62    30    31 1   
    63    30    33 1   
    64    30    73 1   
    65    31    32 1   
    66    31    74 1   
    67    32    75 1   
    68    32    76 1   
    69    33    34 1   
    70    33    77 1   
    71    34    35 2   
    72    34    36 1   
    73    36    37 1   
    74    37    78 1   
    75    37    79 1   
    76    37    80 1   
    77    38    44 1   
    78    38    81 1   
    79    38    82 1   
    80    39    40 ar  
    81    39    44 ar  
    82    39    87 1   
    83    40    41 ar  
    84    40    83 1   
    85    41    42 ar  
    86    41    84 1   
    87    42    43 ar  
    88    42    85 1   
    89    43    44 ar  
    90    43    86 1   
@<TRIPOS>SUBSTRUCTURE
     1 0JV         1 TEMP              0 ****  ****    0 ROOT
