@<TRIPOS>MOLECULE
0JW
   25    25     1     0     0
SMALL
bcc


@<TRIPOS>ATOM
      1 N2           2.3330    -2.4290     0.5810 n1         1 0JW      -0.371800
      2 C12          2.1950    -1.3170     0.3010 cg         1 0JW       0.206500
      3 C10          2.1080     0.0650    -0.0210 ce         1 0JW      -0.062900
      4 C11          3.4550     0.7630    -0.1060 c3         1 0JW       0.428500
      5 O14          4.1530     0.6820     1.1060 oh         1 0JW      -0.587800
      6 N12          4.2310     0.1470    -1.1510 n8         1 0JW      -0.940800
      7 C9           0.9560     0.7330    -0.2020 cf         1 0JW      -0.021200
      8 C5          -0.4300     0.2930    -0.1770 ca         1 0JW      -0.075800
      9 C6          -1.4080     1.2980    -0.1400 ca         1 0JW      -0.121000
     10 C1          -2.7560     0.9980    -0.1070 ca         1 0JW       0.116100
     11 O7          -3.6510     2.0040    -0.0650 oh         1 0JW      -0.494100
     12 C4          -0.8490    -1.0380    -0.2060 ca         1 0JW      -0.090000
     13 C3          -2.1980    -1.3480    -0.1800 ca         1 0JW      -0.186000
     14 C2          -3.1570    -0.3460    -0.1240 ca         1 0JW       0.065100
     15 O8          -4.4830    -0.5710    -0.0950 oh         1 0JW      -0.514100
     16 H1           3.2570     1.8310    -0.2600 h2         1 0JW       0.049700
     17 H2           4.5920    -0.1770     1.1350 ho         1 0JW       0.426000
     18 H3           3.6970     0.0900    -2.0090 hn         1 0JW       0.363300
     19 H4           5.0520     0.7060    -1.3530 hn         1 0JW       0.363300
     20 H6           1.0770     1.7960    -0.3900 ha         1 0JW       0.127000
     21 H7          -1.1100     2.3400    -0.1310 ha         1 0JW       0.149000
     22 H8          -4.5520     1.6590    -0.0620 ho         1 0JW       0.445000
     23 H9          -0.1420    -1.8510    -0.2700 ha         1 0JW       0.148000
     24 H10         -2.5090    -2.3850    -0.2110 ha         1 0JW       0.137000
     25 H11         -4.6780    -1.5150    -0.1250 ho         1 0JW       0.441000
@<TRIPOS>BOND
     1     1     2 3   
     2     2     3 1   
     3     3     4 1   
     4     3     7 2   
     5     4     5 1   
     6     4     6 1   
     7     4    16 1   
     8     5    17 1   
     9     6    18 1   
    10     6    19 1   
    11     7     8 1   
    12     7    20 1   
    13     8     9 ar  
    14     8    12 ar  
    15     9    10 ar  
    16     9    21 1   
    17    10    11 1   
    18    10    14 ar  
    19    11    22 1   
    20    12    13 ar  
    21    12    23 1   
    22    13    14 ar  
    23    13    24 1   
    24    14    15 1   
    25    15    25 1   
@<TRIPOS>SUBSTRUCTURE
     1 0JW         1 TEMP              0 ****  ****    0 ROOT
