@<TRIPOS>MOLECULE
0JW
   25    25     1     0     0
SMALL
No Charge or Current Charge


@<TRIPOS>ATOM
      1 N2           2.1070    -2.2690     1.1190 n1         1 0JW      -0.461000
      2 C12          2.1320    -1.2090     0.6280 cg         1 0JW       0.295700
      3 C10          2.1080     0.1030     0.0430 ce         1 0JW      -0.062900
      4 C11          3.4750     0.7630    -0.1290 c3         1 0JW       0.451700
      5 O14          4.2680     0.6880     0.9950 oh         1 0JW      -0.650000
      6 N12          4.3480     0.0120    -0.9770 n8         1 0JW      -1.051200
      7 C9           0.9540     0.7600    -0.2960 cf         1 0JW      -0.071200
      8 C5          -0.4700     0.3520    -0.2380 ca         1 0JW      -0.075800
      9 C6          -1.4500     1.3500    -0.0530 ca         1 0JW      -0.103000
     10 C1          -2.8120     1.0140    -0.0010 ca         1 0JW       0.116100
     11 O7          -3.7530     1.9840     0.1890 oh         1 0JW      -0.533100
     12 C4          -0.8870    -0.9880    -0.3990 ca         1 0JW      -0.072000
     13 C3          -2.2530    -1.3260    -0.3490 ca         1 0JW      -0.168000
     14 C2          -3.2170    -0.3280    -0.1450 ca         1 0JW       0.065100
     15 O8          -4.5470    -0.6530    -0.0950 oh         1 0JW      -0.553100
     16 H1           3.3990     1.8060    -0.4680 h2         1 0JW       0.049700
     17 H2           4.8270    -0.0710     0.7290 ho         1 0JW       0.465000
     18 H3           3.8710    -0.1040    -1.8790 hn         1 0JW       0.418500
     19 H4           5.1360     0.6240    -1.2250 hn         1 0JW       0.418500
     20 H6           1.0820     1.7730    -0.6810 ha         1 0JW       0.177000
     21 H7          -1.1560     2.3910     0.0620 ha         1 0JW       0.131000
     22 H8          -4.6220     1.5220     0.1900 ho         1 0JW       0.484000
     23 H9          -0.1660    -1.7770    -0.5910 ha         1 0JW       0.130000
     24 H10         -2.5510    -2.3650    -0.4760 ha         1 0JW       0.119000
     25 H11         -4.6400    -1.6240    -0.2150 ho         1 0JW       0.480000
@<TRIPOS>BOND
     1     1     2 3   
     2     2     3 1   
     3     3     4 1   
     4     3     7 2   
     5     4     5 1   
     6     4     6 1   
     7     4    16 1   
     8     5    17 1   
     9     6    18 1   
    10     6    19 1   
    11     7     8 1   
    12     7    20 1   
    13     8     9 ar  
    14     8    12 ar  
    15     9    10 ar  
    16     9    21 1   
    17    10    11 1   
    18    10    14 ar  
    19    11    22 1   
    20    12    13 ar  
    21    12    23 1   
    22    13    14 ar  
    23    13    24 1   
    24    14    15 1   
    25    15    25 1   
@<TRIPOS>SUBSTRUCTURE
     1 0JW         1 TEMP              0 ****  ****    0 ROOT
