@<TRIPOS>MOLECULE
0JY
   24    23     1     0     0
SMALL
bcc


@<TRIPOS>ATOM
      1 O           -2.7560    -0.5680    -0.8670 o          1 0JY      -0.839300
      2 C           -2.1210     0.2900    -0.2220 c          1 0JY       0.934600
      3 CA          -0.7990    -0.1610     0.4400 c3         1 0JY       0.023500
      4 N           -0.8610    -1.5800     0.7550 n8         1 0JY      -0.871800
      5 CB           0.3410     0.3110    -0.4830 c3         1 0JY      -0.095400
      6 CAI          1.8080     0.1410    -0.0390 c3         1 0JY      -0.049000
      7 CAB          2.3100    -1.2960    -0.2150 c3         1 0JY      -0.077433
      8 CAC          2.6620     1.0370    -0.9430 c3         1 0JY      -0.077433
      9 CAA          2.0010     0.5840     1.4110 c3         1 0JY      -0.077433
     10 H2          -0.7080     0.3790     1.3890 h1         1 0JY       0.041700
     11 H3          -0.9800    -2.1080    -0.1000 hn         1 0JY       0.315800
     12 H4           0.0070    -1.8920     1.1700 hn         1 0JY       0.315800
     13 H6           0.2180    -0.1670    -1.4640 hc         1 0JY       0.045700
     14 H7           0.1750     1.3810    -0.6500 hc         1 0JY       0.045700
     15 H8           2.1540    -1.6430    -1.2390 hc         1 0JY       0.022700
     16 H9           3.3810    -1.3570    -0.0050 hc         1 0JY       0.022700
     17 H10          1.8180    -2.0070     0.4470 hc         1 0JY       0.022700
     18 H11          2.4010     2.0900    -0.8200 hc         1 0JY       0.022700
     19 H12          3.7250     0.9280    -0.7150 hc         1 0JY       0.022700
     20 H13          2.5220     0.7820    -1.9960 hc         1 0JY       0.022700
     21 H14          1.4590    -0.0510     2.1140 hc         1 0JY       0.022700
     22 H15          3.0570     0.5480     1.6900 hc         1 0JY       0.022700
     23 H16          1.6550     1.6090     1.5620 hc         1 0JY       0.022700
     24 O1          -2.4240     1.4950    -0.0960 o          1 0JY      -0.839300
@<TRIPOS>BOND
     1     1     2 1   
     2     2     3 1   
     3     2    24 1   
     4     3     4 1   
     5     3     5 1   
     6     3    10 1   
     7     4    11 1   
     8     4    12 1   
     9     5     6 1   
    10     5    13 1   
    11     5    14 1   
    12     6     7 1   
    13     6     8 1   
    14     6     9 1   
    15     7    15 1   
    16     7    16 1   
    17     7    17 1   
    18     8    18 1   
    19     8    19 1   
    20     8    20 1   
    21     9    21 1   
    22     9    22 1   
    23     9    23 1   
@<TRIPOS>SUBSTRUCTURE
     1 0JY         1 TEMP              0 ****  ****    0 ROOT
