@<TRIPOS>MOLECULE
0JY
   24    23     1     0     0
SMALL
No Charge or Current Charge


@<TRIPOS>ATOM
      1 O           -2.7020     0.3220    -0.9970 o          1 0JY      -0.734000
      2 C           -2.1620     0.4350     0.0980 c          1 0JY       0.724000
      3 CA          -0.7980    -0.3360     0.3560 c3         1 0JY       0.023500
      4 N           -0.8520    -1.8350     0.2060 n8         1 0JY      -0.982200
      5 CB           0.3440     0.2640    -0.5240 c3         1 0JY      -0.095400
      6 CAI          1.8220     0.1720    -0.0010 c3         1 0JY      -0.049000
      7 CAB          2.2800    -1.2970     0.2090 c3         1 0JY      -0.077433
      8 CAC          2.7480     0.8210    -1.0660 c3         1 0JY      -0.077433
      9 CAA          1.9870     0.9560     1.3300 c3         1 0JY      -0.077433
     10 H2          -0.5490    -0.1370     1.4060 h1         1 0JY       0.041700
     11 H3          -1.1750    -2.0550    -0.7440 hn         1 0JY       0.371000
     12 H4           0.1050    -2.1990     0.2350 hn         1 0JY       0.371000
     13 H6           0.2840    -0.1800    -1.5260 hc         1 0JY       0.045700
     14 H7           0.1190     1.3290    -0.6700 hc         1 0JY       0.045700
     15 H8           2.1020    -1.8970    -0.6920 hc         1 0JY       0.022700
     16 H9           3.3520    -1.3410     0.4360 hc         1 0JY       0.022700
     17 H10          1.7530    -1.7640     1.0490 hc         1 0JY       0.022700
     18 H11          2.4740     1.8690    -1.2400 hc         1 0JY       0.022700
     19 H12          3.7970     0.7970    -0.7460 hc         1 0JY       0.022700
     20 H13          2.6780     0.2910    -2.0240 hc         1 0JY       0.022700
     21 H14          1.4230     0.4900     2.1460 hc         1 0JY       0.022700
     22 H15          3.0400     0.9850     1.6360 hc         1 0JY       0.022700
     23 H16          1.6390     1.9910     1.2220 hc         1 0JY       0.022700
     24 O1          -2.6620     1.0620     1.0240 o          1 0JY      -0.734000
@<TRIPOS>BOND
     1     1     2 1   
     2     2     3 1   
     3     2    24 1   
     4     3     4 1   
     5     3     5 1   
     6     3    10 1   
     7     4    11 1   
     8     4    12 1   
     9     5     6 1   
    10     5    13 1   
    11     5    14 1   
    12     6     7 1   
    13     6     8 1   
    14     6     9 1   
    15     7    15 1   
    16     7    16 1   
    17     7    17 1   
    18     8    18 1   
    19     8    19 1   
    20     8    20 1   
    21     9    21 1   
    22     9    22 1   
    23     9    23 1   
@<TRIPOS>SUBSTRUCTURE
     1 0JY         1 TEMP              0 ****  ****    0 ROOT
