@<TRIPOS>MOLECULE
0JZ
   66    69     1     0     0
SMALL
abcg2


@<TRIPOS>ATOM
      1 SE1         -3.5560    -3.6190    -1.5450 ss         1 0JZ      -0.203733
      2 SE2          4.8620    -1.3500    -1.4540 ss         1 0JZ      -0.203733
      3 SE3         -1.3560     4.9260    -1.3330 ss         1 0JZ      -0.203733
      4 C01         -2.4360     2.5560    -0.9710 cc         1 0JZ       0.216833
      5 C02         -3.3900     1.4170    -0.9050 c          1 0JZ       0.534267
      6 N03         -2.8340     0.2560    -0.5240 ns         1 0JZ      -0.485900
      7 C04         -3.6010    -0.9390    -0.2690 c3         1 0JZ       0.083067
      8 C05         -2.7960    -2.1290    -0.7100 cc         1 0JZ       0.537367
      9 C07         -1.8490    -4.3000    -1.5480 cc         1 0JZ      -0.089333
     10 C08         -0.9940    -3.4050    -0.9890 cd         1 0JZ       0.216833
     11 C09          0.4620    -3.6660    -0.8390 c          1 0JZ       0.534267
     12 N10          1.1540    -2.6170    -0.3690 ns         1 0JZ      -0.485900
     13 C11          2.5660    -2.6540    -0.0810 c3         1 0JZ       0.083067
     14 C12          3.1940    -1.3940    -0.6090 cc         1 0JZ       0.537367
     15 C14          4.5940     0.4650    -1.5600 cc         1 0JZ      -0.089333
     16 C15          3.3920     0.7860    -1.0150 cd         1 0JZ       0.216833
     17 C16          2.8910     2.1830    -0.9250 c          1 0JZ       0.534267
     18 N17          1.6380     2.2810    -0.4550 ns         1 0JZ      -0.485900
     19 C18          0.9950     3.5380    -0.1620 c3         1 0JZ       0.083067
     20 C19         -0.4360     3.4650    -0.6160 cd         1 0JZ       0.537367
     21 C21         -2.7910     3.7830    -1.4310 cd         1 0JZ      -0.089333
     22 N22         -1.1490     2.3960    -0.5350 nc         1 0JZ      -0.661667
     23 N23          2.6390    -0.2380    -0.5070 nd         1 0JZ      -0.661667
     24 N24         -1.5240    -2.2250    -0.5420 nd         1 0JZ      -0.661667
     25 O26          0.9510    -4.7490    -1.1260 o          1 0JZ      -0.603767
     26 O27          3.5860     3.1330    -1.2530 o          1 0JZ      -0.603767
     27 C28         -4.0450    -1.0200     1.2120 c3         1 0JZ      -0.073367
     28 C29         -4.9240    -2.2360     1.4780 c3         1 0JZ      -0.090933
     29 C30         -2.8800    -0.9610     2.1920 c3         1 0JZ      -0.090933
     30 C31          2.8300    -2.8700     1.4300 c3         1 0JZ      -0.073367
     31 C32          4.3200    -2.9680     1.7350 c3         1 0JZ      -0.090933
     32 C33          2.1470    -1.8320     2.3120 c3         1 0JZ      -0.090933
     33 C34          1.1390     3.9000     1.3370 c3         1 0JZ      -0.073367
     34 C35          0.6290     5.3020     1.6430 c3         1 0JZ      -0.090933
     35 C36          0.5020     2.8720     2.2630 c3         1 0JZ      -0.090933
     36 HN03        -1.8460     0.2490    -0.3200 hn         1 0JZ       0.351500
     37 H04         -4.5080    -0.8880    -0.8760 h1         1 0JZ       0.095033
     38 H07         -1.5980    -5.2720    -1.9470 h4         1 0JZ       0.181000
     39 HN10         0.6440    -1.7690    -0.1740 hn         1 0JZ       0.351500
     40 H11          2.9870    -3.5120    -0.6110 h1         1 0JZ       0.095033
     41 H14          5.3090     1.1450    -1.9990 h4         1 0JZ       0.181000
     42 HN17         1.1570     1.4270    -0.2180 hn         1 0JZ       0.351500
     43 H18          1.5100     4.3110    -0.7360 h1         1 0JZ       0.095033
     44 H21         -3.7600     4.0800    -1.8050 h4         1 0JZ       0.181000
     45 H28         -4.6610    -0.1270     1.3580 hc         1 0JZ       0.064700
     46 H29         -4.3470    -3.1620     1.4860 hc         1 0JZ       0.039533
     47 H29A        -5.3990    -2.1460     2.4550 hc         1 0JZ       0.039533
     48 H29B        -5.7180    -2.3380     0.7360 hc         1 0JZ       0.039533
     49 H30         -2.2190    -1.8230     2.0910 hc         1 0JZ       0.039533
     50 H30A        -2.2800    -0.0590     2.0690 hc         1 0JZ       0.039533
     51 H30B        -3.2600    -0.9560     3.2150 hc         1 0JZ       0.039533
     52 H31          2.3830    -3.8450     1.6490 hc         1 0JZ       0.064700
     53 H32          4.8240    -2.0040     1.6480 hc         1 0JZ       0.039533
     54 H32A         4.4670    -3.3170     2.7570 hc         1 0JZ       0.039533
     55 H32B         4.8230    -3.6740     1.0720 hc         1 0JZ       0.039533
     56 H33          1.0630    -1.8530     2.2020 hc         1 0JZ       0.039533
     57 H33A         2.3660    -2.0360     3.3610 hc         1 0JZ       0.039533
     58 H33B         2.4890    -0.8190     2.0960 hc         1 0JZ       0.039533
     59 H34          2.2200     3.8980     1.5120 hc         1 0JZ       0.064700
     60 H35         -0.4610     5.3590     1.6090 hc         1 0JZ       0.039533
     61 H35A         0.9330     5.5980     2.6480 hc         1 0JZ       0.039533
     62 H35B         1.0310     6.0420     0.9480 hc         1 0JZ       0.039533
     63 H36          0.8630     1.8590     2.0750 hc         1 0JZ       0.039533
     64 H36A         0.7450     3.1070     3.3000 hc         1 0JZ       0.039533
     65 H36B        -0.5850     2.8650     2.1730 hc         1 0JZ       0.039533
     66 O25         -4.5730     1.5590    -1.1780 o          1 0JZ      -0.603767
@<TRIPOS>BOND
     1     1     8 1   
     2     1     9 1   
     3     2    14 1   
     4     2    15 1   
     5     3    20 1   
     6     3    21 1   
     7     4     5 1   
     8     4    21 2   
     9     4    22 1   
    10     5     6 1   
    11     5    66 2   
    12     6     7 1   
    13     6    36 1   
    14     7     8 1   
    15     7    27 1   
    16     7    37 1   
    17     8    24 2   
    18     9    10 2   
    19     9    38 1   
    20    10    11 1   
    21    10    24 1   
    22    11    12 1   
    23    11    25 2   
    24    12    13 1   
    25    12    39 1   
    26    13    14 1   
    27    13    30 1   
    28    13    40 1   
    29    14    23 2   
    30    15    16 2   
    31    15    41 1   
    32    16    17 1   
    33    16    23 1   
    34    17    18 1   
    35    17    26 2   
    36    18    19 1   
    37    18    42 1   
    38    19    20 1   
    39    19    33 1   
    40    19    43 1   
    41    20    22 2   
    42    21    44 1   
    43    27    28 1   
    44    27    29 1   
    45    27    45 1   
    46    28    46 1   
    47    28    47 1   
    48    28    48 1   
    49    29    49 1   
    50    29    50 1   
    51    29    51 1   
    52    30    31 1   
    53    30    32 1   
    54    30    52 1   
    55    31    53 1   
    56    31    54 1   
    57    31    55 1   
    58    32    56 1   
    59    32    57 1   
    60    32    58 1   
    61    33    34 1   
    62    33    35 1   
    63    33    59 1   
    64    34    60 1   
    65    34    61 1   
    66    34    62 1   
    67    35    63 1   
    68    35    64 1   
    69    35    65 1   
@<TRIPOS>SUBSTRUCTURE
     1 0JZ         1 TEMP              0 ****  ****    0 ROOT
