@<TRIPOS>MOLECULE
0JZ
   66    69     1     0     0
SMALL
No Charge or Current Charge


@<TRIPOS>ATOM
      1 SE1         -3.4710    -3.7140    -1.2250 ss         1 0JZ      -0.203733
      2 SE2          4.9660    -1.1500    -1.1260 ss         1 0JZ      -0.203733
      3 SE3         -1.4910     4.9000    -1.3030 ss         1 0JZ      -0.203733
      4 C01         -2.5090     2.5520    -0.9000 cc         1 0JZ       0.216833
      5 C02         -3.5120     1.4320    -0.8870 c          1 0JZ       0.534267
      6 N03         -2.9750     0.2440    -0.4400 ns         1 0JZ      -0.485900
      7 C04         -3.7000    -1.0330    -0.2740 c3         1 0JZ       0.083067
      8 C05         -2.8110    -2.2370    -0.5650 cc         1 0JZ       0.537367
      9 C07         -1.8540    -4.3640    -1.2310 cc         1 0JZ      -0.089333
     10 C08         -0.9320    -3.4380    -0.7920 cd         1 0JZ       0.216833
     11 C09          0.5330    -3.7830    -0.7570 c          1 0JZ       0.534267
     12 N10          1.2970    -2.7150    -0.3440 ns         1 0JZ      -0.485900
     13 C11          2.7650    -2.6990    -0.1780 c3         1 0JZ       0.083067
     14 C12          3.3510    -1.3260    -0.4860 cc         1 0JZ       0.537367
     15 C14          4.6980     0.5720    -1.1680 cc         1 0JZ      -0.089333
     16 C15          3.4230     0.8990    -0.7570 cd         1 0JZ       0.216833
     17 C16          2.9730     2.3350    -0.7570 c          1 0JZ       0.534267
     18 N17          1.6550     2.4640    -0.3750 ns         1 0JZ      -0.485900
     19 C18          0.9130     3.7330    -0.2250 c3         1 0JZ       0.083067
     20 C19         -0.5610     3.5810    -0.5920 cd         1 0JZ       0.537367
     21 C21         -2.8580     3.7980    -1.3650 cd         1 0JZ      -0.089333
     22 N22         -1.2010     2.4220    -0.4650 nc         1 0JZ      -0.661667
     23 N23          2.6500    -0.2020    -0.3690 nd         1 0JZ      -0.661667
     24 N24         -1.4910    -2.2120    -0.4130 nd         1 0JZ      -0.661667
     25 O26          1.0200    -4.8660    -1.0630 o          1 0JZ      -0.603767
     26 O27          3.6670     3.2980    -1.0640 o          1 0JZ      -0.603767
     27 C28         -4.3960    -1.0720     1.1240 c3         1 0JZ      -0.073367
     28 C29         -5.4040    -2.2370     1.2630 c3         1 0JZ      -0.090933
     29 C30         -3.3930    -1.0590     2.3050 c3         1 0JZ      -0.090933
     30 C31          3.1480    -3.2610     1.2290 c3         1 0JZ      -0.073367
     31 C32          4.6650    -3.5230     1.3830 c3         1 0JZ      -0.090933
     32 C33          2.6130    -2.3950     2.3970 c3         1 0JZ      -0.090933
     33 C34          1.1570     4.3340     1.1950 c3         1 0JZ      -0.073367
     34 C35          0.6200     5.7780     1.3390 c3         1 0JZ      -0.090933
     35 C36          0.6320     3.4300     2.3400 c3         1 0JZ      -0.090933
     36 HN03        -1.9870     0.2730    -0.2040 hn         1 0JZ       0.351500
     37 H04         -4.4920    -1.0540    -1.0340 h1         1 0JZ       0.095033
     38 H07         -1.6760    -5.3750    -1.5750 h4         1 0JZ       0.181000
     39 HN10         0.7830    -1.8610    -0.1460 hn         1 0JZ       0.351500
     40 H11          3.1820    -3.3830    -0.9290 h1         1 0JZ       0.095033
     41 H14          5.4810     1.2350    -1.5120 h4         1 0JZ       0.181000
     42 HN17         1.1700     1.5940    -0.1720 hn         1 0JZ       0.351500
     43 H18          1.3310     4.4400    -0.9550 h1         1 0JZ       0.095033
     44 H21         -3.8200     4.1180    -1.7500 h4         1 0JZ       0.181000
     45 H28         -4.9880    -0.1510     1.2030 hc         1 0JZ       0.064700
     46 H29         -4.8910    -3.2050     1.3090 hc         1 0JZ       0.039533
     47 H29A        -5.9910    -2.1280     2.1830 hc         1 0JZ       0.039533
     48 H29B        -6.1030    -2.2530     0.4190 hc         1 0JZ       0.039533
     49 H30         -2.7730    -1.9640     2.3080 hc         1 0JZ       0.039533
     50 H30A        -2.7290    -0.1880     2.2520 hc         1 0JZ       0.039533
     51 H30B        -3.9270    -1.0120     3.2620 hc         1 0JZ       0.039533
     52 H31          2.6620    -4.2410     1.3160 hc         1 0JZ       0.064700
     53 H32          5.2300    -2.5840     1.4270 hc         1 0JZ       0.039533
     54 H32A         4.8650    -4.0770     2.3080 hc         1 0JZ       0.039533
     55 H32B         5.0460    -4.1200     0.5450 hc         1 0JZ       0.039533
     56 H33          1.5240    -2.2790     2.3390 hc         1 0JZ       0.039533
     57 H33A         2.8460    -2.8630     3.3610 hc         1 0JZ       0.039533
     58 H33B         3.0650    -1.3960     2.3890 hc         1 0JZ       0.039533
     59 H34          2.2460     4.4020     1.3230 hc         1 0JZ       0.064700
     60 H35         -0.4760     5.7980     1.3340 hc         1 0JZ       0.039533
     61 H35A         0.9580     6.2200     2.2840 hc         1 0JZ       0.039533
     62 H35B         0.9830     6.4130     0.5220 hc         1 0JZ       0.039533
     63 H36          1.0760     2.4280     2.2900 hc         1 0JZ       0.039533
     64 H36A         0.8880     3.8580     3.3160 hc         1 0JZ       0.039533
     65 H36B        -0.4590     3.3250     2.2920 hc         1 0JZ       0.039533
     66 O25         -4.6840     1.5260    -1.2360 o          1 0JZ      -0.603767
@<TRIPOS>BOND
     1     1     8 1   
     2     1     9 1   
     3     2    14 1   
     4     2    15 1   
     5     3    20 1   
     6     3    21 1   
     7     4     5 1   
     8     4    21 2   
     9     4    22 1   
    10     5     6 1   
    11     5    66 2   
    12     6     7 1   
    13     6    36 1   
    14     7     8 1   
    15     7    27 1   
    16     7    37 1   
    17     8    24 2   
    18     9    10 2   
    19     9    38 1   
    20    10    11 1   
    21    10    24 1   
    22    11    12 1   
    23    11    25 2   
    24    12    13 1   
    25    12    39 1   
    26    13    14 1   
    27    13    30 1   
    28    13    40 1   
    29    14    23 2   
    30    15    16 2   
    31    15    41 1   
    32    16    17 1   
    33    16    23 1   
    34    17    18 1   
    35    17    26 2   
    36    18    19 1   
    37    18    42 1   
    38    19    20 1   
    39    19    33 1   
    40    19    43 1   
    41    20    22 2   
    42    21    44 1   
    43    27    28 1   
    44    27    29 1   
    45    27    45 1   
    46    28    46 1   
    47    28    47 1   
    48    28    48 1   
    49    29    49 1   
    50    29    50 1   
    51    29    51 1   
    52    30    31 1   
    53    30    32 1   
    54    30    52 1   
    55    31    53 1   
    56    31    54 1   
    57    31    55 1   
    58    32    56 1   
    59    32    57 1   
    60    32    58 1   
    61    33    34 1   
    62    33    35 1   
    63    33    59 1   
    64    34    60 1   
    65    34    61 1   
    66    34    62 1   
    67    35    63 1   
    68    35    64 1   
    69    35    65 1   
@<TRIPOS>SUBSTRUCTURE
     1 0JZ         1 TEMP              0 ****  ****    0 ROOT
