@<TRIPOS>MOLECULE
0K0
   52    54     1     0     0
SMALL
bcc


@<TRIPOS>ATOM
      1 C1          -1.3370    -0.0560     0.1490 cp         1 0K0      -0.106500
      2 C2          -2.6630    -0.1940     0.5560 ca         1 0K0      -0.154000
      3 C3          -0.8140     1.2270    -0.0130 ca         1 0K0      -0.098000
      4 C4          -3.4500     0.9260     0.7980 ca         1 0K0       0.091600
      5 C5          -1.6050     2.3400     0.2210 ca         1 0K0      -0.121000
      6 C6          -2.9220     2.2010     0.6310 ca         1 0K0      -0.087000
      7 C7          -0.5050    -1.2400    -0.1190 cp         1 0K0       0.265500
      8 C8          -1.0310    -2.4490    -0.5820 ca         1 0K0       0.391900
      9 N10         -0.2830    -3.4960    -0.8440 nb         1 0K0      -0.746000
     10 C11          1.5900    -2.1770    -0.1990 ca         1 0K0       0.161500
     11 C12          1.0410    -3.4060    -0.6600 ca         1 0K0       0.636900
     12 O14          3.8660    -2.8720    -0.2490 o          1 0K0      -0.647100
     13 C16          4.7390    -0.4020     0.8640 c3         1 0K0       0.103000
     14 C17          4.9750     1.0690     0.5350 c6         1 0K0      -0.079700
     15 C18          6.3910     1.4750     0.9380 c6         1 0K0      -0.110900
     16 C19          4.7440     1.3840    -0.9410 c6         1 0K0      -0.110900
     17 C21          5.0890     2.8400    -1.2480 c6         1 0K0       0.149300
     18 N22          6.4280     3.2320    -0.8400 n7         1 0K0      -0.789200
     19 O26         -7.2540     0.7890     0.9610 o          1 0K0      -0.594800
     20 C27         -5.9050    -0.3100    -1.0150 c3         1 0K0      -0.273300
     21 O28         -5.8180     2.2570    -0.4900 o          1 0K0      -0.594800
     22 S25         -6.0410     0.9920     0.1870 s6         1 0K0       1.219900
     23 N24         -4.7850     0.7730     1.2560 nu         1 0K0      -0.680500
     24 N9           0.8060    -1.1490     0.0510 nb         1 0K0      -0.611000
     25 N23          1.7670    -4.4960    -0.9200 nv         1 0K0      -0.942500
     26 C13          3.0540    -1.9900     0.0330 c          1 0K0       0.594600
     27 N15          3.3880    -0.8120     0.5620 ns         1 0K0      -0.543900
     28 C20          6.6750     2.9270     0.5610 c6         1 0K0       0.149300
     29 H1          -3.0880    -1.1770     0.7180 ha         1 0K0       0.128000
     30 H2           0.2130     1.3520    -0.3310 ha         1 0K0       0.146000
     31 H3          -1.1880     3.3300     0.0880 ha         1 0K0       0.142000
     32 H4          -3.5280     3.0720     0.8410 ha         1 0K0       0.163000
     33 H5          -2.0940    -2.5610    -0.7660 h4         1 0K0       0.025100
     34 H6           5.4270    -1.0230     0.2890 h1         1 0K0       0.056700
     35 H7           4.9580    -0.5780     1.9230 h1         1 0K0       0.056700
     36 H8           4.2720     1.6700     1.1290 hc         1 0K0       0.049700
     37 H9           6.5370     1.3340     2.0130 hc         1 0K0       0.047200
     38 H10          7.1140     0.8240     0.4320 hc         1 0K0       0.047200
     39 H11          5.3720     0.7270    -1.5540 hc         1 0K0       0.047200
     40 H12          3.7080     1.1840    -1.2270 hc         1 0K0       0.047200
     41 H13          4.9790     3.0340    -2.3170 h1         1 0K0       0.052700
     42 H14          4.3720     3.4950    -0.7390 h1         1 0K0       0.052700
     43 H15          7.1030     2.7320    -1.4070 hn         1 0K0       0.348800
     44 H17         -6.7290    -0.1990    -1.7180 h1         1 0K0       0.102700
     45 H18         -4.9580    -0.2230    -1.5420 h1         1 0K0       0.102700
     46 H19         -5.9730    -1.2720    -0.5110 h1         1 0K0       0.102700
     47 H20         -4.9370    -0.0350     1.8510 hn         1 0K0       0.432800
     48 H21          2.7710    -4.4540    -0.8750 hn         1 0K0       0.465300
     49 H22          1.3110    -5.3050    -1.3060 hn         1 0K0       0.465300
     50 H23          2.6300    -0.1790     0.7770 hn         1 0K0       0.339500
     51 H24          6.0430     3.5860     1.1670 h1         1 0K0       0.052700
     52 H25          7.7090     3.1840     0.7990 h1         1 0K0       0.052700
@<TRIPOS>BOND
     1     1     2 ar  
     2     1     3 ar  
     3     1     7 1   
     4     2     4 ar  
     5     2    29 1   
     6     3     5 ar  
     7     3    30 1   
     8     4     6 ar  
     9     4    23 1   
    10     5     6 ar  
    11     5    31 1   
    12     6    32 1   
    13     7     8 ar  
    14     7    24 ar  
    15     8     9 ar  
    16     8    33 1   
    17     9    11 ar  
    18    10    11 ar  
    19    10    24 ar  
    20    10    26 1   
    21    11    25 1   
    22    12    26 2   
    23    13    14 1   
    24    13    27 1   
    25    13    34 1   
    26    13    35 1   
    27    14    15 1   
    28    14    16 1   
    29    14    36 1   
    30    15    28 1   
    31    15    37 1   
    32    15    38 1   
    33    16    17 1   
    34    16    39 1   
    35    16    40 1   
    36    17    18 1   
    37    17    41 1   
    38    17    42 1   
    39    18    28 1   
    40    18    43 1   
    41    19    22 2   
    42    20    22 1   
    43    20    44 1   
    44    20    45 1   
    45    20    46 1   
    46    21    22 2   
    47    22    23 1   
    48    23    47 1   
    49    25    48 1   
    50    25    49 1   
    51    26    27 1   
    52    27    50 1   
    53    28    51 1   
    54    28    52 1   
@<TRIPOS>SUBSTRUCTURE
     1 0K0         1 TEMP              0 ****  ****    0 ROOT
