@<TRIPOS>MOLECULE
0K0
   52    54     1     0     0
SMALL
No Charge or Current Charge


@<TRIPOS>ATOM
      1 C1          -1.3040    -0.4760     0.1050 cp         1 0K0      -0.106500
      2 C2          -2.6860    -0.5920     0.4210 ca         1 0K0      -0.136000
      3 C3          -0.8210     0.8180    -0.2290 ca         1 0K0      -0.080000
      4 C4          -3.5530     0.5150     0.3980 ca         1 0K0       0.230000
      5 C5          -1.6760     1.9310    -0.2480 ca         1 0K0      -0.103000
      6 C6          -3.0360     1.7820     0.0650 ca         1 0K0      -0.069000
      7 C7          -0.3840    -1.6730     0.1290 cp         1 0K0       0.265500
      8 C8          -0.8590    -3.0300     0.0670 ca         1 0K0       0.391900
      9 N10         -0.0380    -4.1190     0.0860 nb         1 0K0      -0.746000
     10 C11          1.7930    -2.5080     0.2130 ca         1 0K0       0.161500
     11 C12          1.2650    -3.8390     0.1670 ca         1 0K0       0.636900
     12 O14          4.1340    -3.1730     0.1870 o          1 0K0      -0.647100
     13 C16          5.0590    -0.4800     0.4110 c3         1 0K0       0.103000
     14 C17          5.1580     1.0720     0.4030 c6         1 0K0      -0.079700
     15 C18          6.6310     1.5430     0.5460 c6         1 0K0      -0.110900
     16 C19          4.5290     1.7050    -0.8720 c6         1 0K0      -0.110900
     17 C21          4.6970     3.2450    -0.8760 c6         1 0K0       0.149300
     18 N22          6.1230     3.6250    -0.7350 n7         1 0K0      -0.844400
     19 O26         -7.3750     0.3660     0.7420 o          1 0K0      -0.524000
     20 C27         -6.2170     1.3460    -1.4250 c3         1 0K0      -0.384100
     21 O28         -6.0480     2.5250     0.9520 o          1 0K0      -0.524000
     22 S25         -6.2420     1.2040     0.3500 s6         1 0K0       1.189100
     23 N24         -4.8950     0.3050     0.7260 nu         1 0K0      -0.874100
     24 N9           0.9530    -1.4180     0.1940 nb         1 0K0      -0.611000
     25 N23          1.9540    -4.9950     0.1940 nv         1 0K0      -1.052900
     26 C13          3.2970    -2.2780     0.2600 c          1 0K0       0.527600
     27 N15          3.6770    -0.9580     0.3760 ns         1 0K0      -0.476900
     28 C20          6.7360     3.0870     0.5030 c6         1 0K0       0.149300
     29 H1          -3.0970    -1.5570     0.7020 ha         1 0K0       0.110000
     30 H2           0.2260     0.9660    -0.4820 ha         1 0K0       0.128000
     31 H3          -1.2830     2.9120    -0.5050 ha         1 0K0       0.124000
     32 H4          -3.6720     2.6610     0.0530 ha         1 0K0       0.145000
     33 H5          -1.9220    -3.2480    -0.0110 h4         1 0K0       0.025100
     34 H6           5.5980    -0.8810    -0.4580 h1         1 0K0       0.056700
     35 H7           5.5390    -0.8670     1.3200 h1         1 0K0       0.056700
     36 H8           4.5980     1.4230     1.2820 hc         1 0K0       0.049700
     37 H9           7.0550     1.1750     1.4900 hc         1 0K0       0.047200
     38 H10          7.2430     1.1120    -0.2590 hc         1 0K0       0.047200
     39 H11          4.9990     1.2830    -1.7710 hc         1 0K0       0.047200
     40 H12          3.4600     1.4610    -0.9360 hc         1 0K0       0.047200
     41 H13          4.2930     3.6570    -1.8130 h1         1 0K0       0.052700
     42 H14          4.1160     3.6790    -0.0470 h1         1 0K0       0.052700
     43 H15          6.6360     3.2410    -1.5380 hn         1 0K0       0.404000
     44 H17         -7.1080     1.9090    -1.7200 h1         1 0K0       0.102700
     45 H18         -5.3030     1.8760    -1.7070 h1         1 0K0       0.102700
     46 H19         -6.2340     0.3330    -1.8380 h1         1 0K0       0.102700
     47 H20         -5.2180    -0.6460     0.8460 hn         1 0K0       0.488000
     48 H21          2.9550    -4.9240     0.0170 hn         1 0K0       0.520500
     49 H22          1.4710    -5.8060    -0.1740 hn         1 0K0       0.520500
     50 H23          2.9190    -0.2850     0.4210 hn         1 0K0       0.339500
     51 H24          6.2290     3.5140     1.3820 h1         1 0K0       0.052700
     52 H25          7.7940     3.3860     0.5540 h1         1 0K0       0.052700
@<TRIPOS>BOND
     1     1     2 ar  
     2     1     3 ar  
     3     1     7 1   
     4     2     4 ar  
     5     2    29 1   
     6     3     5 ar  
     7     3    30 1   
     8     4     6 ar  
     9     4    23 1   
    10     5     6 ar  
    11     5    31 1   
    12     6    32 1   
    13     7     8 ar  
    14     7    24 ar  
    15     8     9 ar  
    16     8    33 1   
    17     9    11 ar  
    18    10    11 ar  
    19    10    24 ar  
    20    10    26 1   
    21    11    25 1   
    22    12    26 2   
    23    13    14 1   
    24    13    27 1   
    25    13    34 1   
    26    13    35 1   
    27    14    15 1   
    28    14    16 1   
    29    14    36 1   
    30    15    28 1   
    31    15    37 1   
    32    15    38 1   
    33    16    17 1   
    34    16    39 1   
    35    16    40 1   
    36    17    18 1   
    37    17    41 1   
    38    17    42 1   
    39    18    28 1   
    40    18    43 1   
    41    19    22 2   
    42    20    22 1   
    43    20    44 1   
    44    20    45 1   
    45    20    46 1   
    46    21    22 2   
    47    22    23 1   
    48    23    47 1   
    49    25    48 1   
    50    25    49 1   
    51    26    27 1   
    52    27    50 1   
    53    28    51 1   
    54    28    52 1   
@<TRIPOS>SUBSTRUCTURE
     1 0K0         1 TEMP              0 ****  ****    0 ROOT
