@<TRIPOS>MOLECULE
0K1
   61    66     1     0     0
SMALL
bcc


@<TRIPOS>ATOM
      1 C1          -1.9490    -0.3260    -0.4000 cp         1 0K1      -0.120500
      2 C2          -3.3160    -0.3290    -0.1310 ca         1 0K1      -0.119000
      3 C3          -1.3400     0.8700    -0.7830 ca         1 0K1      -0.105000
      4 C4          -4.0900     0.8250    -0.2560 ca         1 0K1       0.019000
      5 C5          -2.0960     2.0240    -0.9060 ca         1 0K1      -0.127000
      6 C6          -3.4590     2.0060    -0.6540 ca         1 0K1      -0.126000
      7 C7           0.3740    -3.8040    -0.1080 ca         1 0K1       0.631900
      8 C8           0.9330    -2.5020    -0.0130 ca         1 0K1       0.160500
      9 N10          0.1600    -1.4390    -0.0990 nb         1 0K1      -0.620000
     10 C11         -1.6800    -2.8430    -0.3960 ca         1 0K1       0.388900
     11 C12         -1.1460    -1.5550    -0.2830 cp         1 0K1       0.281500
     12 C17         -5.5220     0.7960     0.0270 cc         1 0K1      -0.224300
     13 C18         -6.3760     1.8700     0.2100 cd         1 0K1      -0.122300
     14 C19         -6.3700    -0.3210     0.1720 cc         1 0K1       0.320200
     15 C23          4.0570    -0.4750     0.5470 c6         1 0K1       0.120700
     16 C24          4.0660     0.7170     1.5120 c6         1 0K1      -0.071200
     17 C27          4.7080    -0.0520    -0.7800 c6         1 0K1      -0.071200
     18 C30          3.9880     2.3270    -0.4100 c6         1 0K1       0.155800
     19 C31          6.1950     1.5170     0.4740 c6         1 0K1      -0.058700
     20 C32          5.4460     2.7070    -0.1310 c6         1 0K1      -0.099400
     21 O15          3.2150    -3.1730     0.1510 o          1 0K1      -0.649100
     22 C14          2.3950    -2.2560     0.1760 c          1 0K1       0.593600
     23 N16          2.7110    -0.9740     0.3720 ns         1 0K1      -0.543900
     24 C29          6.1600     0.3440    -0.5060 c6         1 0K1      -0.069900
     25 O33          3.2570     3.4250    -0.9200 oh         1 0K1      -0.593800
     26 C28          3.9580     1.1400    -1.3790 c6         1 0K1      -0.082400
     27 C25          3.3260     1.9150     0.9030 c6         1 0K1      -0.082400
     28 C26          5.5200     1.1080     1.7840 c6         1 0K1      -0.069900
     29 N9          -0.9450    -3.9290    -0.3070 nb         1 0K1      -0.746000
     30 N21         -7.6140     0.0400     0.4160 nd         1 0K1      -0.525800
     31 N20         -7.5980     1.3690     0.4370 na         1 0K1       0.113400
     32 C22         -8.8120     2.1050     0.6980 c3         1 0K1       0.043600
     33 H1          -3.7870    -1.2420     0.2120 ha         1 0K1       0.128000
     34 H2          -0.2800     0.8930    -0.9990 ha         1 0K1       0.143000
     35 H3          -1.6220     2.9470    -1.2140 ha         1 0K1       0.133000
     36 H4          -4.0340     2.9150    -0.7760 ha         1 0K1       0.126000
     37 H5          -2.7360    -2.9960    -0.5850 h4         1 0K1       0.029100
     38 H6           0.6290    -5.8130    -0.1500 hn         1 0K1       0.461800
     39 H7           2.0900    -4.8870     0.0470 hn         1 0K1       0.461800
     40 H8          -6.1970     2.9330     0.2030 h4         1 0K1       0.172000
     41 H9          -6.1200    -1.3690     0.0940 h4         1 0K1       0.037100
     42 H10          4.6490    -1.2840     0.9840 h1         1 0K1       0.077700
     43 H11          3.5810     0.4240     2.4470 hc         1 0K1       0.064700
     44 H12          4.6760    -0.8960    -1.4760 hc         1 0K1       0.064700
     45 H13          7.2320     1.8040     0.6700 hc         1 0K1       0.053700
     46 H14          5.9320     3.0190    -1.0620 hc         1 0K1       0.045700
     47 H15          5.4760     3.5640     0.5510 hc         1 0K1       0.045700
     48 H16          1.9360    -0.3270     0.3700 hn         1 0K1       0.343500
     49 H17          6.7150    -0.5070    -0.1010 hc         1 0K1       0.045950
     50 H18          6.6510     0.6220    -1.4440 hc         1 0K1       0.045950
     51 H19          3.6670     3.6970    -1.7490 ho         1 0K1       0.402000
     52 H20          4.4270     1.4260    -2.3270 hc         1 0K1       0.050950
     53 H21          2.9220     0.8750    -1.6120 hc         1 0K1       0.050950
     54 H22          2.2660     1.6960     0.7310 hc         1 0K1       0.050950
     55 H23          3.3480     2.7510     1.6090 hc         1 0K1       0.050950
     56 H24          5.5530     1.9330     2.5010 hc         1 0K1       0.045950
     57 H25          6.0550     0.2710     2.2410 hc         1 0K1       0.045950
     58 H26         -9.1800     1.8920     1.7000 h1         1 0K1       0.056700
     59 H27         -8.6040     3.1680     0.6170 h1         1 0K1       0.056700
     60 H28         -9.5770     1.8370    -0.0290 h1         1 0K1       0.056700
     61 N13          1.0850    -4.9300     0.0070 nv         1 0K1      -0.946500
@<TRIPOS>BOND
     1     1     2 ar  
     2     1     3 ar  
     3     1    11 1   
     4     2     4 ar  
     5     2    33 1   
     6     3     5 ar  
     7     3    34 1   
     8     4     6 ar  
     9     4    12 1   
    10     5     6 ar  
    11     5    35 1   
    12     6    36 1   
    13     7     8 ar  
    14     7    29 ar  
    15     7    61 1   
    16     8     9 ar  
    17     8    22 1   
    18     9    11 ar  
    19    10    11 ar  
    20    10    29 ar  
    21    10    37 1   
    22    12    13 2   
    23    12    14 1   
    24    13    31 1   
    25    13    40 1   
    26    14    30 2   
    27    14    41 1   
    28    15    16 1   
    29    15    17 1   
    30    15    23 1   
    31    15    42 1   
    32    16    27 1   
    33    16    28 1   
    34    16    43 1   
    35    17    24 1   
    36    17    26 1   
    37    17    44 1   
    38    18    20 1   
    39    18    25 1   
    40    18    26 1   
    41    18    27 1   
    42    19    20 1   
    43    19    24 1   
    44    19    28 1   
    45    19    45 1   
    46    20    46 1   
    47    20    47 1   
    48    21    22 2   
    49    22    23 1   
    50    23    48 1   
    51    24    49 1   
    52    24    50 1   
    53    25    51 1   
    54    26    52 1   
    55    26    53 1   
    56    27    54 1   
    57    27    55 1   
    58    28    56 1   
    59    28    57 1   
    60    30    31 1   
    61    31    32 1   
    62    32    58 1   
    63    32    59 1   
    64    32    60 1   
    65    38    61 1   
    66    39    61 1   
@<TRIPOS>SUBSTRUCTURE
     1 0K1         1 TEMP              0 ****  ****    0 ROOT
