@<TRIPOS>MOLECULE
0K1
   61    66     1     0     0
SMALL
No Charge or Current Charge


@<TRIPOS>ATOM
      1 C1          -2.1010    -0.1940    -0.2320 cp         1 0K1      -0.120500
      2 C2          -3.5110    -0.2790    -0.0590 ca         1 0K1      -0.101000
      3 C3          -1.5420     1.1020    -0.3930 ca         1 0K1      -0.087000
      4 C4          -4.3370     0.8660    -0.0510 ca         1 0K1       0.019000
      5 C5          -2.3510     2.2470    -0.3880 ca         1 0K1      -0.109000
      6 C6          -3.7390     2.1330    -0.2200 ca         1 0K1      -0.108000
      7 C7           0.3290    -3.6590    -0.2590 ca         1 0K1       0.631900
      8 C8           0.8940    -2.3650    -0.0190 ca         1 0K1       0.160500
      9 N10          0.0980    -1.2420    -0.0090 nb         1 0K1      -0.620000
     10 C11         -1.7440    -2.7490    -0.4920 ca         1 0K1       0.388900
     11 C12         -1.2320    -1.4280    -0.2390 cp         1 0K1       0.281500
     12 C17         -5.7880     0.7170     0.1340 cc         1 0K1      -0.159000
     13 C18         -6.6550     1.7720     0.1570 cd         1 0K1      -0.155000
     14 C19         -6.5670    -0.4380     0.3150 cc         1 0K1       0.254900
     15 C23          4.1700    -0.4610     0.7060 c6         1 0K1       0.120700
     16 C24          4.2030     0.8670     1.5260 c6         1 0K1      -0.071200
     17 C27          4.9100    -0.2220    -0.6510 c6         1 0K1      -0.071200
     18 C30          4.2730     2.2500    -0.6200 c6         1 0K1       0.179000
     19 C31          6.4420     1.4690     0.4750 c6         1 0K1      -0.058700
     20 C32          5.7580     2.6190    -0.3230 c6         1 0K1      -0.099400
     21 O15          3.2020    -3.1230     0.1280 o          1 0K1      -0.649100
     22 C14          2.3900    -2.2060     0.2060 c          1 0K1       0.526600
     23 N16          2.7910    -0.9190     0.4960 ns         1 0K1      -0.476900
     24 C29          6.3910     0.1600    -0.3640 c6         1 0K1      -0.069900
     25 O33          3.6480     3.3070    -1.3480 oh         1 0K1      -0.656000
     26 C28          4.2310     0.9340    -1.4510 c6         1 0K1      -0.082400
     27 C25          3.5260     2.0270     0.7290 c6         1 0K1      -0.082400
     28 C26          5.6840     1.2510     1.8170 c6         1 0K1      -0.069900
     29 N9          -0.9670    -3.8710    -0.5030 nb         1 0K1      -0.746000
     30 N21         -7.8550    -0.1970     0.4510 nd         1 0K1      -0.525800
     31 N20         -7.9120     1.1880     0.3520 na         1 0K1       0.134800
     32 C22         -9.1950     1.8970     0.4520 c3         1 0K1       0.072900
     33 H1          -3.9710    -1.2500     0.0880 ha         1 0K1       0.110000
     34 H2          -0.4700     1.2250    -0.5320 ha         1 0K1       0.125000
     35 H3          -1.9000     3.2290    -0.5170 ha         1 0K1       0.115000
     36 H4          -4.3370     3.0380    -0.2210 ha         1 0K1       0.108000
     37 H5          -2.7990    -2.9090    -0.7030 h4         1 0K1       0.029100
     38 H6           0.4990    -5.5840    -0.7830 hn         1 0K1       0.517000
     39 H7           1.9880    -4.8030    -0.3480 hn         1 0K1       0.517000
     40 H8          -6.5110     2.8410     0.0590 h4         1 0K1       0.154000
     41 H9          -6.2280    -1.4650     0.3530 h4         1 0K1       0.037100
     42 H10          4.7020    -1.2420     1.2720 h1         1 0K1       0.077700
     43 H11          3.6760     0.7210     2.4790 hc         1 0K1       0.064700
     44 H12          4.8860    -1.1440    -1.2480 hc         1 0K1       0.064700
     45 H13          7.4880     1.7350     0.6810 hc         1 0K1       0.053700
     46 H14          6.3040     2.7980    -1.2600 hc         1 0K1       0.045700
     47 H15          5.8110     3.5550     0.2500 hc         1 0K1       0.045700
     48 H16          2.0410    -0.2370     0.5280 hn         1 0K1       0.343500
     49 H17          6.8960    -0.6550     0.1740 hc         1 0K1       0.045950
     50 H18          6.9390     0.2920    -1.3070 hc         1 0K1       0.045950
     51 H19          4.1830     3.4430    -2.1580 ho         1 0K1       0.441000
     52 H20          4.7460     1.0730    -2.4110 hc         1 0K1       0.050950
     53 H21          3.1930     0.6710    -1.6980 hc         1 0K1       0.050950
     54 H22          2.4660     1.8060     0.5450 hc         1 0K1       0.050950
     55 H23          3.5440     2.9490     1.3260 hc         1 0K1       0.050950
     56 H24          5.7280     2.1620     2.4300 hc         1 0K1       0.045950
     57 H25          6.1730     0.4610     2.4040 hc         1 0K1       0.045950
     58 H26         -9.6470     1.7000     1.4320 h1         1 0K1       0.056700
     59 H27         -9.0330     2.9750     0.3370 h1         1 0K1       0.056700
     60 H28         -9.8700     1.5450    -0.3380 h1         1 0K1       0.056700
     61 N13          0.9720    -4.8420    -0.2830 nv         1 0K1      -1.056900
@<TRIPOS>BOND
     1     1     2 ar  
     2     1     3 ar  
     3     1    11 1   
     4     2     4 ar  
     5     2    33 1   
     6     3     5 ar  
     7     3    34 1   
     8     4     6 ar  
     9     4    12 1   
    10     5     6 ar  
    11     5    35 1   
    12     6    36 1   
    13     7     8 ar  
    14     7    29 ar  
    15     7    61 1   
    16     8     9 ar  
    17     8    22 1   
    18     9    11 ar  
    19    10    11 ar  
    20    10    29 ar  
    21    10    37 1   
    22    12    13 2   
    23    12    14 1   
    24    13    31 1   
    25    13    40 1   
    26    14    30 2   
    27    14    41 1   
    28    15    16 1   
    29    15    17 1   
    30    15    23 1   
    31    15    42 1   
    32    16    27 1   
    33    16    28 1   
    34    16    43 1   
    35    17    24 1   
    36    17    26 1   
    37    17    44 1   
    38    18    20 1   
    39    18    25 1   
    40    18    26 1   
    41    18    27 1   
    42    19    20 1   
    43    19    24 1   
    44    19    28 1   
    45    19    45 1   
    46    20    46 1   
    47    20    47 1   
    48    21    22 2   
    49    22    23 1   
    50    23    48 1   
    51    24    49 1   
    52    24    50 1   
    53    25    51 1   
    54    26    52 1   
    55    26    53 1   
    56    27    54 1   
    57    27    55 1   
    58    28    56 1   
    59    28    57 1   
    60    30    31 1   
    61    31    32 1   
    62    32    58 1   
    63    32    59 1   
    64    32    60 1   
    65    38    61 1   
    66    39    61 1   
@<TRIPOS>SUBSTRUCTURE
     1 0K1         1 TEMP              0 ****  ****    0 ROOT
