@<TRIPOS>MOLECULE
0K6
   63    67     1     0     0
SMALL
No Charge or Current Charge


@<TRIPOS>ATOM
      1 O2           6.1040     3.2300    -0.6370 o          1 0K6      -0.586100
      2 C19          5.9520     2.0600    -0.3280 c          1 0K6       0.634300
      3 N7           7.0280     1.3450     0.0580 nt         1 0K6      -0.602000
      4 C18          4.6270     1.3690    -0.3390 cc         1 0K6      -0.158300
      5 N6           4.1920     0.0300    -0.0670 na         1 0K6      -0.184400
      6 C13          5.1030    -1.0920     0.2520 c5         1 0K6       0.084300
      7 C17          5.4340    -1.2470     1.7600 c5         1 0K6      -0.086900
      8 C16          6.2240    -2.5930     1.8210 c5         1 0K6      -0.077900
      9 C15          5.8500    -3.3430     0.5020 c5         1 0K6      -0.077900
     10 C14          4.6340    -2.5450    -0.0350 c5         1 0K6      -0.086900
     11 C20          3.4630     2.0540    -0.6550 cd         1 0K6      -0.123200
     12 C21          2.3300     1.1880    -0.5500 ca         1 0K6      -0.270800
     13 C12          2.7920    -0.0460    -0.1750 ca         1 0K6       0.188500
     14 N5           1.9190    -1.0550     0.0230 nb         1 0K6      -0.280000
     15 C22          0.9630     1.4220    -0.7460 ca         1 0K6       0.206900
     16 N8           0.0890     0.4140    -0.5550 nb         1 0K6      -0.249000
     17 C11          0.6140    -0.7720    -0.1710 ca         1 0K6       0.409900
     18 N4          -0.2420    -1.8490     0.0220 nu         1 0K6      -0.906900
     19 C10         -1.6060    -2.0120    -0.0470 cc         1 0K6       0.228000
     20 C9          -2.2840    -3.1560    -0.3330 cd         1 0K6      -0.233000
     21 N3          -3.6490    -2.8440    -0.2660 na         1 0K6       0.073000
     22 C8          -4.7320    -3.8100    -0.5030 c3         1 0K6       0.060900
     23 C23         -2.5370    -0.9900     0.1960 cc         1 0K6      -0.131000
     24 C7          -3.8130    -1.4790     0.0330 cd         1 0K6      -0.235600
     25 C1          -5.0890    -0.7290     0.2520 c          1 0K6       0.647700
     26 O1          -6.1620    -1.2990     0.4050 o          1 0K6      -0.615100
     27 N1          -5.0020     0.6790     0.3140 n          1 0K6      -0.405800
     28 C6          -4.3000     1.4370    -0.7730 c6         1 0K6       0.097000
     29 C5          -3.9730     2.9070    -0.3930 c6         1 0K6       0.149300
     30 N2          -5.1800     3.6400     0.0740 n3         1 0K6      -0.718600
     31 C4          -4.9040     5.0620     0.3680 c3         1 0K6       0.153100
     32 C3          -5.7940     2.9270     1.2270 c6         1 0K6       0.149300
     33 C2          -6.1420     1.4500     0.8900 c6         1 0K6       0.097000
     34 H1           6.9210     0.3870     0.3470 hn         1 0K6       0.314500
     35 H2           7.9320     1.7920     0.0800 hn         1 0K6       0.314500
     36 H3           6.0240    -0.9420    -0.3240 h1         1 0K6       0.065700
     37 H4           6.0160    -0.4070     2.1550 hc         1 0K6       0.056450
     38 H5           4.5160    -1.3030     2.3580 hc         1 0K6       0.056450
     39 H6           7.3050    -2.4240     1.8790 hc         1 0K6       0.047700
     40 H7           5.9460    -3.1710     2.7100 hc         1 0K6       0.047700
     41 H8           6.6820    -3.3190    -0.2120 hc         1 0K6       0.047700
     42 H9           5.6090    -4.3980     0.6770 hc         1 0K6       0.047700
     43 H10          3.7270    -2.8230     0.5130 hc         1 0K6       0.056450
     44 H11          4.4520    -2.7270    -1.1000 hc         1 0K6       0.056450
     45 H12          3.4230     3.1100    -0.9190 ha         1 0K6       0.221000
     46 H13          0.5690     2.3920    -1.0440 h4         1 0K6       0.023100
     47 H14          0.2640    -2.7300     0.1100 hn         1 0K6       0.508000
     48 H15         -1.9190    -4.1480    -0.5670 h4         1 0K6       0.149000
     49 H16         -5.4040    -3.4260    -1.2790 h1         1 0K6       0.058367
     50 H17         -4.3110    -4.7680    -0.8330 h1         1 0K6       0.058367
     51 H18         -5.2940    -3.9650     0.4260 h1         1 0K6       0.058367
     52 H19         -2.2660     0.0110     0.5120 ha         1 0K6       0.157000
     53 H20         -3.3810     0.9410    -1.1020 h1         1 0K6       0.061450
     54 H21         -4.9620     1.4550    -1.6500 h1         1 0K6       0.061450
     55 H22         -3.2010     2.9040     0.3910 h1         1 0K6       0.041200
     56 H23         -3.5390     3.4070    -1.2710 h1         1 0K6       0.041200
     57 H25         -4.4980     5.5690    -0.5190 h1         1 0K6       0.031367
     58 H26         -5.8240     5.5830     0.6630 h1         1 0K6       0.031367
     59 H27         -4.1760     5.1610     1.1840 h1         1 0K6       0.031367
     60 H28         -5.1040     2.9350     2.0850 h1         1 0K6       0.041200
     61 H29         -6.7120     3.4390     1.5490 h1         1 0K6       0.041200
     62 H30         -6.9740     1.4380     0.1720 h1         1 0K6       0.061450
     63 H31         -6.4950     0.9540     1.8060 h1         1 0K6       0.061450
@<TRIPOS>BOND
     1     1     2 2   
     2     2     3 1   
     3     2     4 1   
     4     3    34 1   
     5     3    35 1   
     6     4     5 1   
     7     4    11 2   
     8     5     6 1   
     9     5    13 1   
    10     6     7 1   
    11     6    10 1   
    12     6    36 1   
    13     7     8 1   
    14     7    37 1   
    15     7    38 1   
    16     8     9 1   
    17     8    39 1   
    18     8    40 1   
    19     9    10 1   
    20     9    41 1   
    21     9    42 1   
    22    10    43 1   
    23    10    44 1   
    24    11    12 1   
    25    11    45 1   
    26    12    13 ar  
    27    12    15 ar  
    28    13    14 ar  
    29    14    17 ar  
    30    15    16 ar  
    31    15    46 1   
    32    16    17 ar  
    33    17    18 1   
    34    18    19 1   
    35    18    47 1   
    36    19    20 2   
    37    19    23 1   
    38    20    21 1   
    39    20    48 1   
    40    21    22 1   
    41    21    24 1   
    42    22    49 1   
    43    22    50 1   
    44    22    51 1   
    45    23    24 2   
    46    23    52 1   
    47    24    25 1   
    48    25    26 2   
    49    25    27 1   
    50    27    28 1   
    51    27    33 1   
    52    28    29 1   
    53    28    53 1   
    54    28    54 1   
    55    29    30 1   
    56    29    55 1   
    57    29    56 1   
    58    30    31 1   
    59    30    32 1   
    60    31    57 1   
    61    31    58 1   
    62    31    59 1   
    63    32    33 1   
    64    32    60 1   
    65    32    61 1   
    66    33    62 1   
    67    33    63 1   
@<TRIPOS>SUBSTRUCTURE
     1 0K6         1 TEMP              0 ****  ****    0 ROOT
