@<TRIPOS>MOLECULE
0K6
   63    67     1     0     0
SMALL
bcc


@<TRIPOS>ATOM
      1 O2           6.4730     2.8830    -1.0470 o          1 0K6      -0.586100
      2 C19          6.0920     2.0710    -0.2170 c          1 0K6       0.701300
      3 N7           6.8520     1.6580     0.8130 nt         1 0K6      -0.669000
      4 C18          4.7140     1.5290    -0.2870 cc         1 0K6      -0.158300
      5 N6           4.3130     0.2380     0.0630 na         1 0K6      -0.155100
      6 C13          5.1590    -0.9380     0.2470 c5         1 0K6       0.055000
      7 C17          4.9000    -1.6980     1.5730 c5         1 0K6      -0.086900
      8 C16          4.6170    -3.1480     1.1670 c5         1 0K6      -0.077900
      9 C15          5.3210    -3.3010    -0.1810 c5         1 0K6      -0.077900
     10 C14          5.0240    -1.9780    -0.8800 c5         1 0K6      -0.086900
     11 C20          3.6270     2.2890    -0.6070 cd         1 0K6      -0.073200
     12 C21          2.4880     1.4580    -0.4310 ca         1 0K6      -0.401400
     13 C12          2.9610     0.1930    -0.0280 ca         1 0K6       0.516800
     14 N5           2.1960    -0.8580     0.2100 nb         1 0K6      -0.806000
     15 C22          1.1070     1.5590    -0.5430 ca         1 0K6       0.535200
     16 N8           0.3180     0.5310    -0.2940 nb         1 0K6      -0.775000
     17 C11          0.8920    -0.6290     0.0660 ca         1 0K6       0.935900
     18 N4           0.0880    -1.6930     0.3150 nu         1 0K6      -0.713300
     19 C10         -1.3020    -1.7540     0.2920 cc         1 0K6       0.089600
     20 C9          -2.0060    -2.9380     0.1910 cd         1 0K6      -0.200300
     21 N3          -3.3330    -2.6640     0.2730 na         1 0K6       0.000900
     22 C8          -4.3620    -3.6810     0.2130 c3         1 0K6       0.031600
     23 C23         -2.2530    -0.7230     0.4210 cc         1 0K6      -0.149000
     24 C7          -3.5010    -1.3170     0.3990 cd         1 0K6      -0.184900
     25 C1          -4.8130    -0.7080     0.6810 c          1 0K6       0.714700
     26 O1          -5.6280    -1.2970     1.3860 o          1 0K6      -0.615100
     27 N1          -5.0350     0.5380     0.2040 n          1 0K6      -0.472800
     28 C6          -4.4120     1.1360    -0.9650 c6         1 0K6       0.097000
     29 C5          -3.9890     2.5620    -0.6650 c6         1 0K6       0.149300
     30 N2          -5.1210     3.3410    -0.2050 n3         1 0K6      -0.718600
     31 C4          -4.7600     4.7190     0.0330 c3         1 0K6       0.153100
     32 C3          -5.7240     2.7350     0.9640 c6         1 0K6       0.149300
     33 C2          -6.1680     1.3100     0.6780 c6         1 0K6       0.097000
     34 H1           6.4540     1.1900     1.6090 hn         1 0K6       0.314500
     35 H2           7.7620     2.0700     0.9450 hn         1 0K6       0.314500
     36 H3           6.1840    -0.5760     0.2450 h1         1 0K6       0.065700
     37 H4           5.7920    -1.6430     2.1990 hc         1 0K6       0.056450
     38 H5           4.0840    -1.2600     2.1460 hc         1 0K6       0.056450
     39 H6           4.9590    -3.8670     1.9120 hc         1 0K6       0.047700
     40 H7           3.5430    -3.2910     1.0340 hc         1 0K6       0.047700
     41 H8           6.3990    -3.4210    -0.0340 hc         1 0K6       0.047700
     42 H9           4.9740    -4.1640    -0.7510 hc         1 0K6       0.047700
     43 H10          4.0070    -1.9920    -1.2730 hc         1 0K6       0.056450
     44 H11          5.6980    -1.7600    -1.7080 hc         1 0K6       0.056450
     45 H12          3.6480     3.3330    -0.8770 ha         1 0K6       0.171000
     46 H13          0.6260     2.4850    -0.8430 h4         1 0K6       0.023100
     47 H14          0.5760    -2.5460     0.5360 hn         1 0K6       0.452800
     48 H15         -1.6490    -3.9470     0.0570 h4         1 0K6       0.167000
     49 H16         -5.1870    -3.3580    -0.4160 h1         1 0K6       0.058367
     50 H17         -3.9350    -4.5800    -0.2240 h1         1 0K6       0.058367
     51 H18         -4.7460    -3.9170     1.2030 h1         1 0K6       0.058367
     52 H19         -2.0550     0.3290     0.5360 ha         1 0K6       0.175000
     53 H20         -3.5610     0.5490    -1.2940 h1         1 0K6       0.061450
     54 H21         -5.1430     1.1430    -1.7820 h1         1 0K6       0.061450
     55 H22         -3.1660     2.5520     0.0740 h1         1 0K6       0.041200
     56 H23         -3.5930     3.0110    -1.5790 h1         1 0K6       0.041200
     57 H25         -4.3710     5.1690    -0.8810 h1         1 0K6       0.031367
     58 H26         -5.6410     5.2880     0.3360 h1         1 0K6       0.031367
     59 H27         -3.9980     4.8390     0.8190 h1         1 0K6       0.031367
     60 H28         -5.0340     2.7290     1.8260 h1         1 0K6       0.041200
     61 H29         -6.5990     3.3210     1.2580 h1         1 0K6       0.041200
     62 H30         -6.9630     1.3090    -0.0750 h1         1 0K6       0.061450
     63 H31         -6.5660     0.8620     1.5850 h1         1 0K6       0.061450
@<TRIPOS>BOND
     1     1     2 2   
     2     2     3 1   
     3     2     4 1   
     4     3    34 1   
     5     3    35 1   
     6     4     5 1   
     7     4    11 2   
     8     5     6 1   
     9     5    13 1   
    10     6     7 1   
    11     6    10 1   
    12     6    36 1   
    13     7     8 1   
    14     7    37 1   
    15     7    38 1   
    16     8     9 1   
    17     8    39 1   
    18     8    40 1   
    19     9    10 1   
    20     9    41 1   
    21     9    42 1   
    22    10    43 1   
    23    10    44 1   
    24    11    12 1   
    25    11    45 1   
    26    12    13 ar  
    27    12    15 ar  
    28    13    14 ar  
    29    14    17 ar  
    30    15    16 ar  
    31    15    46 1   
    32    16    17 ar  
    33    17    18 1   
    34    18    19 1   
    35    18    47 1   
    36    19    20 2   
    37    19    23 1   
    38    20    21 1   
    39    20    48 1   
    40    21    22 1   
    41    21    24 1   
    42    22    49 1   
    43    22    50 1   
    44    22    51 1   
    45    23    24 2   
    46    23    52 1   
    47    24    25 1   
    48    25    26 2   
    49    25    27 1   
    50    27    28 1   
    51    27    33 1   
    52    28    29 1   
    53    28    53 1   
    54    28    54 1   
    55    29    30 1   
    56    29    55 1   
    57    29    56 1   
    58    30    31 1   
    59    30    32 1   
    60    31    57 1   
    61    31    58 1   
    62    31    59 1   
    63    32    33 1   
    64    32    60 1   
    65    32    61 1   
    66    33    62 1   
    67    33    63 1   
@<TRIPOS>SUBSTRUCTURE
     1 0K6         1 TEMP              0 ****  ****    0 ROOT
