@<TRIPOS>MOLECULE
0K7
   23    24     1     0     0
SMALL
No Charge or Current Charge


@<TRIPOS>ATOM
      1 CAF         -2.1740     1.1250    -0.0010 ca         1 0K7      -0.091500
      2 CAD         -3.5530     0.8490    -0.0040 ca         1 0K7      -0.120000
      3 CAL         -4.0150    -0.4770    -0.0040 ca         1 0K7      -0.095300
      4 CAA         -5.5070    -0.7720    -0.0100 c3         1 0K7      -0.038800
      5 CAE         -3.0830    -1.5280    -0.0050 ca         1 0K7      -0.120000
      6 CAG         -1.7030    -1.2560    -0.0030 ca         1 0K7      -0.091500
      7 CAM         -1.2250     0.0750     0.0000 ca         1 0K7      -0.094500
      8 CAO          0.2260     0.3520     0.0030 cc         1 0K7       0.453900
      9 NAI          1.1420    -0.6090    -0.0000 nd         1 0K7      -0.589000
     10 SAJ          0.8560     1.9830     0.0100 ss         1 0K7      -0.187400
     11 CAH          2.4580     1.3080     0.0090 cc         1 0K7      -0.220000
     12 CAN          2.4400    -0.0750     0.0030 cd         1 0K7       0.243500
     13 CAK          3.7500    -0.8600     0.0010 c          1 0K7       0.630500
     14 OAC          3.7120    -2.0860    -0.0040 o          1 0K7      -0.701500
     15 OAB          4.8160    -0.2520     0.0050 o          1 0K7      -0.701500
     16 H1          -1.8580     2.1660    -0.0010 ha         1 0K7       0.131000
     17 H2          -4.2630     1.6730    -0.0060 ha         1 0K7       0.100500
     18 H3          -5.8870    -0.8420    -1.0360 hc         1 0K7       0.032700
     19 H4          -5.7300    -1.7200     0.4950 hc         1 0K7       0.032700
     20 H5          -6.0730     0.0150     0.5040 hc         1 0K7       0.032700
     21 H6          -3.4250    -2.5600    -0.0090 ha         1 0K7       0.100500
     22 H7          -1.0070    -2.0920    -0.0030 ha         1 0K7       0.131000
     23 H8           3.3180     1.9650     0.0120 h4         1 0K7       0.164000
@<TRIPOS>BOND
     1     1     2 ar  
     2     1     7 ar  
     3     1    16 1   
     4     2     3 ar  
     5     2    17 1   
     6     3     4 1   
     7     3     5 ar  
     8     4    18 1   
     9     4    19 1   
    10     4    20 1   
    11     5     6 ar  
    12     5    21 1   
    13     6     7 ar  
    14     6    22 1   
    15     7     8 1   
    16     8     9 2   
    17     8    10 1   
    18     9    12 1   
    19    10    11 1   
    20    11    12 2   
    21    11    23 1   
    22    12    13 1   
    23    13    14 1   
    24    13    15 1   
@<TRIPOS>SUBSTRUCTURE
     1 0K7         1 TEMP              0 ****  ****    0 ROOT
