@<TRIPOS>MOLECULE
0K7
   23    24     1     0     0
SMALL
abcg2


@<TRIPOS>ATOM
      1 CAF         -2.1650     1.1210     0.0140 ca         1 0K7      -0.091500
      2 CAD         -3.5200     0.8310     0.0160 ca         1 0K7      -0.120000
      3 CAL         -3.9760    -0.4860     0.0110 ca         1 0K7      -0.095300
      4 CAA         -5.4430    -0.7940    -0.0250 c3         1 0K7      -0.038800
      5 CAE         -3.0250    -1.5050     0.0110 ca         1 0K7      -0.120000
      6 CAG         -1.6690    -1.2240     0.0080 ca         1 0K7      -0.091500
      7 CAM         -1.2180     0.0970     0.0080 ca         1 0K7      -0.094500
      8 CAO          0.2190     0.3690     0.0040 cc         1 0K7       0.453900
      9 NAI          1.1350    -0.5470     0.0060 nd         1 0K7      -0.589000
     10 SAJ          0.8590     1.9850    -0.0090 ss         1 0K7      -0.187400
     11 CAH          2.4410     1.3380    -0.0100 cc         1 0K7      -0.220000
     12 CAN          2.3950    -0.0240    -0.0010 cd         1 0K7       0.243500
     13 CAK          3.6230    -0.9130     0.0010 c          1 0K7       0.630500
     14 OAC          3.4200    -2.1380     0.0130 o          1 0K7      -0.701500
     15 OAB          4.7170    -0.3180    -0.0090 o          1 0K7      -0.701500
     16 H1          -1.8580     2.1610     0.0190 ha         1 0K7       0.131000
     17 H2          -4.2340     1.6450     0.0220 ha         1 0K7       0.100500
     18 H3          -5.8030    -0.8420    -1.0550 hc         1 0K7       0.032700
     19 H4          -5.6630    -1.7540     0.4400 hc         1 0K7       0.032700
     20 H5          -6.0260    -0.0270     0.4850 hc         1 0K7       0.032700
     21 H6          -3.3480    -2.5390     0.0140 ha         1 0K7       0.100500
     22 H7          -0.9520    -2.0330     0.0090 ha         1 0K7       0.131000
     23 H8           3.3080     1.9780    -0.0170 h4         1 0K7       0.164000
@<TRIPOS>BOND
     1     1     2 ar  
     2     1     7 ar  
     3     1    16 1   
     4     2     3 ar  
     5     2    17 1   
     6     3     4 1   
     7     3     5 ar  
     8     4    18 1   
     9     4    19 1   
    10     4    20 1   
    11     5     6 ar  
    12     5    21 1   
    13     6     7 ar  
    14     6    22 1   
    15     7     8 1   
    16     8     9 2   
    17     8    10 1   
    18     9    12 1   
    19    10    11 1   
    20    11    12 2   
    21    11    23 1   
    22    12    13 1   
    23    13    14 1   
    24    13    15 1   
@<TRIPOS>SUBSTRUCTURE
     1 0K7         1 TEMP              0 ****  ****    0 ROOT
