@<TRIPOS>MOLECULE
0K9
   86    90     1     0     0
SMALL
No Charge or Current Charge


@<TRIPOS>ATOM
      1 C24         -5.3170     4.1460    -2.2230 cy         1 0K9      -0.092900
      2 C25         -5.9790     4.8170    -0.9700 cy         1 0K9      -0.086400
      3 C26         -4.9620     3.9800    -0.1200 cy         1 0K9      -0.092900
      4 C18         -5.0280     2.9290    -1.2820 cy         1 0K9       0.160000
      5 C19         -3.6950     2.2100    -1.5620 c6         1 0K9      -0.089400
      6 O17         -6.0800     1.9670    -1.1830 os         1 0K9      -0.441300
      7 C16         -5.9210     0.8360    -0.4190 ca         1 0K9       0.599300
      8 N23         -7.0460     0.1770    -0.0850 nb         1 0K9      -0.697000
      9 C22         -6.9280    -0.9330     0.6730 ca         1 0K9       0.380900
     10 C21         -5.6940    -1.4300     1.1340 ca         1 0K9      -0.167300
     11 C27         -5.6340    -2.6780     2.0130 c3         1 0K9      -0.012100
     12 C28         -5.4600    -4.0250     1.2400 c3         1 0K9      -0.044000
     13 C30         -6.6500    -4.2580     0.2710 c3         1 0K9      -0.084433
     14 C31         -4.1340    -4.0310     0.4340 c3         1 0K9      -0.084433
     15 C29         -5.4220    -5.1860     2.2700 c3         1 0K9      -0.084433
     16 C20         -4.5240    -0.7360     0.7890 ca         1 0K9      -0.047000
     17 C15         -4.6310     0.4080    -0.0260 ca         1 0K9      -0.243300
     18 C14         -3.3930     1.2070    -0.4350 c6         1 0K9       0.264800
     19 N4          -2.3130     0.3010    -0.8640 n7         1 0K9      -0.900400
     20 C3          -1.1330     0.1260     0.0250 c3         1 0K9       0.164800
     21 C2          -0.0890     1.2930    -0.0730 c3         1 0K9       0.150300
     22 O5          -0.6370     2.5230     0.4550 oh         1 0K9      -0.641000
     23 C1           1.2530     0.9670     0.6640 c3         1 0K9       0.097700
     24 N6           1.8360    -0.3340     0.2830 ns         1 0K9      -0.510900
     25 C33          2.2870    -0.6820    -0.9790 c          1 0K9       0.597100
     26 O34          2.1460     0.0550    -1.9470 o          1 0K9      -0.567100
     27 C35          3.0730    -2.0270    -1.0290 c3         1 0K9       0.089300
     28 C42          2.1210    -3.2130    -1.3210 c3         1 0K9      -0.123100
     29 O36          4.1030    -1.9960    -2.0520 os         1 0K9      -0.421000
     30 C37          5.1080    -3.0250    -1.9790 c3         1 0K9       0.141900
     31 C7           2.3120     2.1010     0.5430 c3         1 0K9      -0.048100
     32 C8           3.6660     1.7120     1.1330 ca         1 0K9      -0.084300
     33 C9           4.7040     1.2630     0.2930 ca         1 0K9      -0.094000
     34 C13          3.8700     1.7610     2.5230 ca         1 0K9      -0.102000
     35 C12          5.0990     1.3610     3.0660 ca         1 0K9      -0.118000
     36 C11          6.1280     0.9010     2.2270 ca         1 0K9      -0.069000
     37 C10          5.9470     0.8450     0.8250 ca         1 0K9      -0.135500
     38 C32          7.0190     0.3290    -0.0490 cc         1 0K9       0.482900
     39 N38          8.1530    -0.1770     0.4280 nd         1 0K9      -0.646000
     40 C39          8.9680    -0.5990    -0.6120 cd         1 0K9       0.279900
     41 C40          8.4460    -0.4100    -1.8690 cc         1 0K9      -0.281000
     42 S41          6.8760     0.3310    -1.7950 ss         1 0K9      -0.003400
     43 H1          -5.9820     3.9480    -3.0700 hc         1 0K9       0.062200
     44 H2          -4.4250     4.6650    -2.5930 hc         1 0K9       0.062200
     45 H3          -5.8810     5.9050    -0.9000 hc         1 0K9       0.056700
     46 H4          -7.0320     4.5500    -0.8130 hc         1 0K9       0.056700
     47 H5          -3.9850     4.4590     0.0130 hc         1 0K9       0.062200
     48 H6          -5.3190     3.6390     0.8570 hc         1 0K9       0.062200
     49 H7          -3.7640     1.6860    -2.5250 hc         1 0K9       0.072700
     50 H8          -2.8670     2.9270    -1.6540 hc         1 0K9       0.072700
     51 H9          -7.8580    -1.4400     0.9260 h4         1 0K9       0.021100
     52 H10         -4.8110    -2.5730     2.7320 hc         1 0K9       0.044700
     53 H11         -6.5440    -2.7340     2.6230 hc         1 0K9       0.044700
     54 H12         -6.5720    -5.2390    -0.2150 hc         1 0K9       0.033811
     55 H13         -7.6060    -4.2230     0.8070 hc         1 0K9       0.033811
     56 H14         -6.6740    -3.4990    -0.5200 hc         1 0K9       0.033811
     57 H15         -3.2760    -3.8270     1.0860 hc         1 0K9       0.033811
     58 H16         -3.9710    -5.0050    -0.0430 hc         1 0K9       0.033811
     59 H17         -4.1460    -3.2740    -0.3600 hc         1 0K9       0.033811
     60 H18         -4.5850    -5.0630     2.9690 hc         1 0K9       0.033811
     61 H19         -6.3490    -5.2230     2.8550 hc         1 0K9       0.033811
     62 H20         -5.3010    -6.1540     1.7680 hc         1 0K9       0.033811
     63 H21         -3.5580    -1.0850     1.1480 ha         1 0K9       0.108000
     64 H22         -3.0760     1.7810     0.4490 h1         1 0K9       0.055700
     65 H23         -2.7440    -0.6180    -1.0150 hn         1 0K9       0.437000
     66 H25         -1.4430    -0.0070     1.0700 h1         1 0K9       0.032700
     67 H26         -0.6270    -0.8020    -0.2720 h1         1 0K9       0.032700
     68 H27          0.1400     1.4230    -1.1400 h1         1 0K9       0.114700
     69 H28         -0.9230     2.3420     1.3740 ho         1 0K9       0.427000
     70 H29          1.0140     0.8750     1.7320 h1         1 0K9       0.037700
     71 H30          2.0300    -0.9960     1.0250 hn         1 0K9       0.313500
     72 H31          3.5290    -2.1700    -0.0400 h1         1 0K9       0.037700
     73 H32          2.6310    -4.1760    -1.2010 hc         1 0K9       0.047033
     74 H33          1.2740    -3.2010    -0.6250 hc         1 0K9       0.047033
     75 H34          1.7240    -3.1500    -2.3410 hc         1 0K9       0.047033
     76 H35          5.5960    -3.0240    -0.9950 h1         1 0K9       0.031700
     77 H36          4.6770    -4.0180    -2.1560 h1         1 0K9       0.031700
     78 H37          5.8800    -2.8540    -2.7390 h1         1 0K9       0.031700
     79 H38          2.4270     2.3750    -0.5130 hc         1 0K9       0.074200
     80 H39          1.9370     3.0010     1.0440 hc         1 0K9       0.074200
     81 H40          4.5220     1.2260    -0.7780 ha         1 0K9       0.129000
     82 H41          3.0740     2.1020     3.1810 ha         1 0K9       0.111000
     83 H42          5.2530     1.3970     4.1420 ha         1 0K9       0.116000
     84 H43          7.0670     0.5860     2.6770 ha         1 0K9       0.136000
     85 H44          9.9330    -1.0390    -0.3910 h4         1 0K9       0.041100
     86 H45          8.8860    -0.6570    -2.8250 h4         1 0K9       0.161000
@<TRIPOS>BOND
     1     1     2 1   
     2     1     4 1   
     3     1    43 1   
     4     1    44 1   
     5     2     3 1   
     6     2    45 1   
     7     2    46 1   
     8     3     4 1   
     9     3    47 1   
    10     3    48 1   
    11     4     5 1   
    12     4     6 1   
    13     5    18 1   
    14     5    49 1   
    15     5    50 1   
    16     6     7 1   
    17     7     8 ar  
    18     7    17 ar  
    19     8     9 ar  
    20     9    10 ar  
    21     9    51 1   
    22    10    11 1   
    23    10    16 ar  
    24    11    12 1   
    25    11    52 1   
    26    11    53 1   
    27    12    13 1   
    28    12    14 1   
    29    12    15 1   
    30    13    54 1   
    31    13    55 1   
    32    13    56 1   
    33    14    57 1   
    34    14    58 1   
    35    14    59 1   
    36    15    60 1   
    37    15    61 1   
    38    15    62 1   
    39    16    17 ar  
    40    16    63 1   
    41    17    18 1   
    42    18    19 1   
    43    18    64 1   
    44    19    20 1   
    45    19    65 1   
    46    20    21 1   
    47    20    66 1   
    48    20    67 1   
    49    21    22 1   
    50    21    23 1   
    51    21    68 1   
    52    22    69 1   
    53    23    24 1   
    54    23    31 1   
    55    23    70 1   
    56    24    25 1   
    57    24    71 1   
    58    25    26 2   
    59    25    27 1   
    60    27    28 1   
    61    27    29 1   
    62    27    72 1   
    63    28    73 1   
    64    28    74 1   
    65    28    75 1   
    66    29    30 1   
    67    30    76 1   
    68    30    77 1   
    69    30    78 1   
    70    31    32 1   
    71    31    79 1   
    72    31    80 1   
    73    32    33 ar  
    74    32    34 ar  
    75    33    37 ar  
    76    33    81 1   
    77    34    35 ar  
    78    34    82 1   
    79    35    36 ar  
    80    35    83 1   
    81    36    37 ar  
    82    36    84 1   
    83    37    38 1   
    84    38    39 2   
    85    38    42 1   
    86    39    40 1   
    87    40    41 2   
    88    40    85 1   
    89    41    42 1   
    90    41    86 1   
@<TRIPOS>SUBSTRUCTURE
     1 0K9         1 TEMP              0 ****  ****    0 ROOT
