@<TRIPOS>MOLECULE
0K9
   86    90     1     0     0
SMALL
abcg2


@<TRIPOS>ATOM
      1 C24         -5.8750     4.1730    -1.5510 cy         1 0K9      -0.092900
      2 C25         -6.0120     4.8610    -0.1790 cy         1 0K9      -0.086400
      3 C26         -4.9520     3.8870     0.3710 cy         1 0K9      -0.092900
      4 C18         -5.1830     2.9870    -0.8640 cy         1 0K9       0.160000
      5 C19         -3.9810     2.3370    -1.5040 c6         1 0K9      -0.089400
      6 O17         -6.1880     2.0080    -0.5810 os         1 0K9      -0.441300
      7 C16         -5.7900     0.8500    -0.0290 ca         1 0K9       0.599300
      8 N23         -6.7800     0.1020     0.4140 nb         1 0K9      -0.697000
      9 C22         -6.4940    -1.0730     0.9600 ca         1 0K9       0.380900
     10 C21         -5.2080    -1.5750     1.0970 ca         1 0K9      -0.167300
     11 C27         -4.9510    -2.9180     1.7130 c3         1 0K9      -0.012100
     12 C28         -4.8740    -4.1050     0.7270 c3         1 0K9      -0.044000
     13 C30         -6.1650    -4.2210    -0.0830 c3         1 0K9      -0.084433
     14 C31         -3.6910    -3.9460    -0.2280 c3         1 0K9      -0.084433
     15 C29         -4.6780    -5.3780     1.5530 c3         1 0K9      -0.084433
     16 C20         -4.1830    -0.7620     0.6200 ca         1 0K9      -0.047000
     17 C15         -4.4430     0.4700     0.0430 ca         1 0K9      -0.243300
     18 C14         -3.3510     1.3590    -0.5200 c6         1 0K9       0.264800
     19 N4          -2.2500     0.6330    -1.1160 n7         1 0K9      -0.900400
     20 C3          -1.0720     0.3990    -0.3040 c3         1 0K9       0.164800
     21 C2           0.0020     1.4530    -0.5710 c3         1 0K9       0.150300
     22 O5          -0.4800     2.7590    -0.3320 oh         1 0K9      -0.641000
     23 C1           1.2820     1.2150     0.2510 c3         1 0K9       0.097700
     24 N6           1.7640    -0.1520     0.1690 ns         1 0K9      -0.510900
     25 C33          2.1710    -0.7670    -0.9540 c          1 0K9       0.597100
     26 O34          2.1220    -0.2620    -2.0630 o          1 0K9      -0.567100
     27 C35          2.6560    -2.1990    -0.7380 c3         1 0K9       0.089300
     28 C42          1.4500    -3.1310    -0.6370 c3         1 0K9      -0.123100
     29 O36          3.4970    -2.5030    -1.8150 os         1 0K9      -0.421000
     30 C37          4.2780    -3.6560    -1.6240 c3         1 0K9       0.141900
     31 C7           2.3810     2.2390    -0.0870 c3         1 0K9      -0.048100
     32 C8           3.6330     1.9860     0.7020 ca         1 0K9      -0.084300
     33 C9           4.6540     1.2060     0.1740 ca         1 0K9      -0.094000
     34 C13          3.7780     2.4860     1.9930 ca         1 0K9      -0.102000
     35 C12          4.9180     2.2050     2.7350 ca         1 0K9      -0.118000
     36 C11          5.9250     1.4160     2.2050 ca         1 0K9      -0.069000
     37 C10          5.7960     0.9040     0.9130 ca         1 0K9      -0.135500
     38 C32          6.8550     0.0590     0.3600 cc         1 0K9       0.482900
     39 N38          8.0420    -0.0590     0.8730 nd         1 0K9      -0.646000
     40 C39          8.8120    -0.9240     0.1590 cd         1 0K9       0.279900
     41 C40          8.2140    -1.4880    -0.9220 cc         1 0K9      -0.281000
     42 S41          6.6060    -0.9180    -1.0510 ss         1 0K9      -0.003400
     43 H1          -6.7830     3.9500    -2.1110 hc         1 0K9       0.062200
     44 H2          -5.1800     4.6980    -2.2070 hc         1 0K9       0.062200
     45 H3          -5.7770     5.9230    -0.1320 hc         1 0K9       0.056700
     46 H4          -6.9930     4.7040     0.2680 hc         1 0K9       0.056700
     47 H5          -3.9500     4.3220     0.3580 hc         1 0K9       0.062200
     48 H6          -5.1220     3.4420     1.3530 hc         1 0K9       0.062200
     49 H7          -4.2760     1.8180    -2.4220 hc         1 0K9       0.072700
     50 H8          -3.2480     3.0970    -1.7750 hc         1 0K9       0.072700
     51 H9          -7.3410    -1.6500     1.3180 h4         1 0K9       0.021100
     52 H10         -4.0180    -2.8830     2.2840 hc         1 0K9       0.044700
     53 H11         -5.7450    -3.1280     2.4370 hc         1 0K9       0.044700
     54 H12         -6.1470    -5.1190    -0.7040 hc         1 0K9       0.033811
     55 H13         -7.0430    -4.2830     0.5650 hc         1 0K9       0.033811
     56 H14         -6.3020    -3.3670    -0.7490 hc         1 0K9       0.033811
     57 H15         -2.7470    -3.8670     0.3170 hc         1 0K9       0.033811
     58 H16         -3.6180    -4.8090    -0.8930 hc         1 0K9       0.033811
     59 H17         -3.7900    -3.0600    -0.8590 hc         1 0K9       0.033811
     60 H18         -3.7560    -5.3330     2.1380 hc         1 0K9       0.033811
     61 H19         -5.5050    -5.5300     2.2510 hc         1 0K9       0.033811
     62 H20         -4.6200    -6.2590     0.9100 hc         1 0K9       0.033811
     63 H21         -3.1570    -1.1020     0.7080 ha         1 0K9       0.108000
     64 H22         -2.9420     1.9500     0.3060 h1         1 0K9       0.055700
     65 H23         -2.5700    -0.2140    -1.5620 hn         1 0K9       0.437000
     66 H25         -1.2980     0.3730     0.7730 h1         1 0K9       0.032700
     67 H26         -0.6740    -0.5860    -0.5520 h1         1 0K9       0.032700
     68 H27          0.2420     1.4250    -1.6360 h1         1 0K9       0.114700
     69 H28         -0.6800     2.8470     0.6070 ho         1 0K9       0.427000
     70 H29          1.0170     1.3470     1.3060 h1         1 0K9       0.037700
     71 H30          1.9160    -0.6250     1.0460 hn         1 0K9       0.313500
     72 H31          3.2190    -2.2470     0.2070 h1         1 0K9       0.037700
     73 H32          1.7630    -4.1700    -0.5320 hc         1 0K9       0.047033
     74 H33          0.8450    -2.8920     0.2370 hc         1 0K9       0.047033
     75 H34          0.8180    -3.0510    -1.5220 hc         1 0K9       0.047033
     76 H35          4.8630    -3.6060    -0.6990 h1         1 0K9       0.031700
     77 H36          3.6840    -4.5750    -1.6010 h1         1 0K9       0.031700
     78 H37          4.9710    -3.7230    -2.4620 h1         1 0K9       0.031700
     79 H38          2.5980     2.2020    -1.1560 hc         1 0K9       0.074200
     80 H39          2.0000     3.2370     0.1300 hc         1 0K9       0.074200
     81 H40          4.5530     0.8450    -0.8450 ha         1 0K9       0.129000
     82 H41          2.9950     3.1000     2.4230 ha         1 0K9       0.111000
     83 H42          5.0210     2.6020     3.7370 ha         1 0K9       0.116000
     84 H43          6.8050     1.1890     2.7910 ha         1 0K9       0.136000
     85 H44          9.8300    -1.1150     0.4670 h4         1 0K9       0.041100
     86 H45          8.6260    -2.1910    -1.6280 h4         1 0K9       0.161000
@<TRIPOS>BOND
     1     1     2 1   
     2     1     4 1   
     3     1    43 1   
     4     1    44 1   
     5     2     3 1   
     6     2    45 1   
     7     2    46 1   
     8     3     4 1   
     9     3    47 1   
    10     3    48 1   
    11     4     5 1   
    12     4     6 1   
    13     5    18 1   
    14     5    49 1   
    15     5    50 1   
    16     6     7 1   
    17     7     8 ar  
    18     7    17 ar  
    19     8     9 ar  
    20     9    10 ar  
    21     9    51 1   
    22    10    11 1   
    23    10    16 ar  
    24    11    12 1   
    25    11    52 1   
    26    11    53 1   
    27    12    13 1   
    28    12    14 1   
    29    12    15 1   
    30    13    54 1   
    31    13    55 1   
    32    13    56 1   
    33    14    57 1   
    34    14    58 1   
    35    14    59 1   
    36    15    60 1   
    37    15    61 1   
    38    15    62 1   
    39    16    17 ar  
    40    16    63 1   
    41    17    18 1   
    42    18    19 1   
    43    18    64 1   
    44    19    20 1   
    45    19    65 1   
    46    20    21 1   
    47    20    66 1   
    48    20    67 1   
    49    21    22 1   
    50    21    23 1   
    51    21    68 1   
    52    22    69 1   
    53    23    24 1   
    54    23    31 1   
    55    23    70 1   
    56    24    25 1   
    57    24    71 1   
    58    25    26 2   
    59    25    27 1   
    60    27    28 1   
    61    27    29 1   
    62    27    72 1   
    63    28    73 1   
    64    28    74 1   
    65    28    75 1   
    66    29    30 1   
    67    30    76 1   
    68    30    77 1   
    69    30    78 1   
    70    31    32 1   
    71    31    79 1   
    72    31    80 1   
    73    32    33 ar  
    74    32    34 ar  
    75    33    37 ar  
    76    33    81 1   
    77    34    35 ar  
    78    34    82 1   
    79    35    36 ar  
    80    35    83 1   
    81    36    37 ar  
    82    36    84 1   
    83    37    38 1   
    84    38    39 2   
    85    38    42 1   
    86    39    40 1   
    87    40    41 2   
    88    40    85 1   
    89    41    42 1   
    90    41    86 1   
@<TRIPOS>SUBSTRUCTURE
     1 0K9         1 TEMP              0 ****  ****    0 ROOT
