@<TRIPOS>MOLECULE
0KB
   36    37     1     0     0
SMALL
No Charge or Current Charge


@<TRIPOS>ATOM
      1 OAW         21.2630    14.9120    -8.7370 o          1 0KB      -0.907167
      2 PAV         22.0110    13.9430    -9.5920 p5         1 0KB       1.201000
      3 OAY         21.2600    13.7230   -10.8630 o          1 0KB      -0.907167
      4 OAX         22.1640    12.6380    -8.8820 o          1 0KB      -0.907167
      5 CAQ         23.6610    14.6390   -10.0150 ca         1 0KB      -0.142500
      6 CAR         23.9120    16.0110    -9.8030 ca         1 0KB      -0.055000
      7 CAS         25.1650    16.5640   -10.1160 ca         1 0KB      -0.180000
      8 CAT         26.1780    15.7540   -10.6470 ca         1 0KB      -0.133000
      9 CAU         25.9390    14.3890   -10.8660 ca         1 0KB      -0.220000
     10 CAP         24.6800    13.8250   -10.5530 ca         1 0KB       0.153100
     11 OAO         24.4210    12.4880   -10.7620 os         1 0KB      -0.326100
     12 CAA         25.4380    11.5310   -11.1280 c3         1 0KB       0.097600
     13 CAB         24.8720    10.0920   -11.1170 c          1 0KB       0.591100
     14 OAD         25.4410     9.1690   -11.6970 o          1 0KB      -0.689100
     15 NAC         23.6880     9.9530   -10.4020 ns         1 0KB      -0.126000
     16 CAE         22.8610     8.8300   -10.1110 ca         1 0KB       0.008000
     17 CAF         23.2170     7.4990   -10.4290 ca         1 0KB      -0.127000
     18 CAG         22.3620     6.4200   -10.1110 ca         1 0KB      -0.192300
     19 CAK         22.7710     4.9850   -10.4760 c3         1 0KB       0.338300
     20 FAM         22.0870     4.0490    -9.7770 f          1 0KB      -0.132000
     21 FAN         24.0830     4.7570   -10.2410 f          1 0KB      -0.132000
     22 FAL         22.5560     4.7310   -11.7870 f          1 0KB      -0.132000
     23 CAH         21.1310     6.6870    -9.4770 ca         1 0KB      -0.133000
     24 CAI         20.7720     8.0040    -9.1530 ca         1 0KB      -0.116000
     25 CAJ         21.6330     9.0680    -9.4650 ca         1 0KB      -0.091000
     26 H3          23.1330    16.6510    -9.3930 ha         1 0KB       0.135000
     27 H4          25.3480    17.6230    -9.9480 ha         1 0KB       0.069000
     28 H5          27.1470    16.1840   -10.8900 ha         1 0KB       0.062000
     29 H6          26.7390    13.7840   -11.2840 ha         1 0KB       0.076000
     30 H7          25.8280    11.7430   -12.1310 h1         1 0KB       0.037700
     31 H8          26.2660    11.5630   -10.4080 h1         1 0KB       0.037700
     32 H9          23.3530    10.8310   -10.0180 hn         1 0KB       0.280000
     33 H10         24.1610     7.2820   -10.9210 ha         1 0KB       0.149000
     34 H11         20.4460     5.8780    -9.2310 ha         1 0KB       0.094000
     35 H12         19.8220     8.2010    -8.6600 ha         1 0KB       0.103000
     36 H13         21.3380    10.0850    -9.2070 ha         1 0KB       0.212000
@<TRIPOS>BOND
     1     1     2 1   
     2     2     3 1   
     3     2     4 1   
     4     2     5 1   
     5     5     6 ar  
     6     5    10 ar  
     7     6     7 ar  
     8     6    26 1   
     9     7     8 ar  
    10     7    27 1   
    11     8     9 ar  
    12     8    28 1   
    13     9    10 ar  
    14     9    29 1   
    15    10    11 1   
    16    11    12 1   
    17    12    13 1   
    18    12    30 1   
    19    12    31 1   
    20    13    14 2   
    21    13    15 1   
    22    15    16 1   
    23    15    32 1   
    24    16    17 ar  
    25    16    25 ar  
    26    17    18 ar  
    27    17    33 1   
    28    18    19 1   
    29    18    23 ar  
    30    19    20 1   
    31    19    21 1   
    32    19    22 1   
    33    23    24 ar  
    34    23    34 1   
    35    24    25 ar  
    36    24    35 1   
    37    25    36 1   
@<TRIPOS>SUBSTRUCTURE
     1 0KB         1 TEMP              0 ****  ****    0 ROOT
