@<TRIPOS>MOLECULE
0KB
   36    37     1     0     0
SMALL
abcg2


@<TRIPOS>ATOM
      1 OAW         21.1330    14.5480    -9.1640 o          1 0KB      -0.907167
      2 PAV         21.9420    13.6200   -10.0640 p5         1 0KB       1.201000
      3 OAY         21.3910    13.4880   -11.4820 o          1 0KB      -0.907167
      4 OAX         22.2370    12.2610    -9.3990 o          1 0KB      -0.907167
      5 CAQ         23.6070    14.4260   -10.2280 ca         1 0KB      -0.142500
      6 CAR         23.8280    15.7250    -9.7680 ca         1 0KB      -0.055000
      7 CAS         25.0780    16.3380    -9.8430 ca         1 0KB      -0.180000
      8 CAT         26.1480    15.6450   -10.3940 ca         1 0KB      -0.133000
      9 CAU         25.9640    14.3500   -10.8710 ca         1 0KB      -0.220000
     10 CAP         24.7050    13.7590   -10.7900 ca         1 0KB       0.153100
     11 OAO         24.4740    12.4980   -11.2830 os         1 0KB      -0.326100
     12 CAA         25.4840    11.5160   -11.1780 c3         1 0KB       0.097600
     13 CAB         24.8810    10.1390   -10.9290 c          1 0KB       0.591100
     14 OAD         25.5590     9.1480   -11.2000 o          1 0KB      -0.689100
     15 NAC         23.6450    10.1280   -10.3830 ns         1 0KB      -0.126000
     16 CAE         22.8890     8.9950   -10.0430 ca         1 0KB       0.008000
     17 CAF         23.1880     7.6980   -10.4770 ca         1 0KB      -0.127000
     18 CAG         22.3620     6.6440   -10.1020 ca         1 0KB      -0.192300
     19 CAK         22.6490     5.2550   -10.5900 c3         1 0KB       0.338300
     20 FAM         22.5750     4.3370    -9.5950 f          1 0KB      -0.132000
     21 FAN         23.8700     5.1250   -11.1450 f          1 0KB      -0.132000
     22 FAL         21.7550     4.8500   -11.5310 f          1 0KB      -0.132000
     23 CAH         21.2390     6.8460    -9.3050 ca         1 0KB      -0.133000
     24 CAI         20.9460     8.1360    -8.8820 ca         1 0KB      -0.116000
     25 CAJ         21.7570     9.2010    -9.2440 ca         1 0KB      -0.091000
     26 H3          22.9940    16.2510    -9.3200 ha         1 0KB       0.135000
     27 H4          25.2130    17.3460    -9.4700 ha         1 0KB       0.069000
     28 H5          27.1270    16.1050   -10.4590 ha         1 0KB       0.062000
     29 H6          26.7920    13.8120   -11.3130 ha         1 0KB       0.076000
     30 H7          26.0780    11.4540   -12.0920 h1         1 0KB       0.037700
     31 H8          26.1600    11.7360   -10.3450 h1         1 0KB       0.037700
     32 H9          23.2040    11.0430   -10.1150 hn         1 0KB       0.280000
     33 H10         24.0540     7.5260   -11.0920 ha         1 0KB       0.149000
     34 H11         20.6090     6.0140    -9.0180 ha         1 0KB       0.094000
     35 H12         20.0780     8.3140    -8.2600 ha         1 0KB       0.103000
     36 H13         21.5320    10.2100    -8.9250 ha         1 0KB       0.212000
@<TRIPOS>BOND
     1     1     2 1   
     2     2     3 1   
     3     2     4 1   
     4     2     5 1   
     5     5     6 ar  
     6     5    10 ar  
     7     6     7 ar  
     8     6    26 1   
     9     7     8 ar  
    10     7    27 1   
    11     8     9 ar  
    12     8    28 1   
    13     9    10 ar  
    14     9    29 1   
    15    10    11 1   
    16    11    12 1   
    17    12    13 1   
    18    12    30 1   
    19    12    31 1   
    20    13    14 2   
    21    13    15 1   
    22    15    16 1   
    23    15    32 1   
    24    16    17 ar  
    25    16    25 ar  
    26    17    18 ar  
    27    17    33 1   
    28    18    19 1   
    29    18    23 ar  
    30    19    20 1   
    31    19    21 1   
    32    19    22 1   
    33    23    24 ar  
    34    23    34 1   
    35    24    25 ar  
    36    24    35 1   
    37    25    36 1   
@<TRIPOS>SUBSTRUCTURE
     1 0KB         1 TEMP              0 ****  ****    0 ROOT
