@<TRIPOS>MOLECULE
0KC
   36    37     1     0     0
SMALL
abcg2


@<TRIPOS>ATOM
      1 CAS         22.2200     8.4260    -8.8840 c5         1 0KC      -0.101400
      2 CAR         21.1880     7.3010    -9.0430 c5         1 0KC      -0.073400
      3 CAQ         20.7860     7.3120   -10.5470 c5         1 0KC      -0.073400
      4 CAT         21.7350     8.3150   -11.2350 c5         1 0KC      -0.101400
      5 CAP         22.9050     8.4820   -10.2560 c5         1 0KC       0.121700
      6 NAN         23.6750     9.6890   -10.4840 ns         1 0KC      -0.461900
      7 CAM         25.0060     9.6930   -10.5520 c          1 0KC       0.578100
      8 OAO         25.7360     8.6970   -10.4460 o          1 0KC      -0.736100
      9 CAL         25.6720    11.0500   -10.7420 c3         1 0KC       0.095600
     10 OAK         24.7460    12.0060   -11.2250 os         1 0KC      -0.325100
     11 CAB         24.7690    13.2850   -10.7320 ca         1 0KC       0.157100
     12 CAA         25.9620    13.8990   -10.3550 ca         1 0KC      -0.225000
     13 CAF         25.9470    15.2110    -9.8890 ca         1 0KC      -0.136000
     14 CAE         24.7440    15.9020    -9.8100 ca         1 0KC      -0.184000
     15 CAD         23.5630    15.2700   -10.1930 ca         1 0KC      -0.058000
     16 CAC         23.5370    13.9530   -10.6560 ca         1 0KC      -0.138500
     17 PAG         21.9290    13.1410   -11.1180 p5         1 0KC       1.192000
     18 OAI         21.9040    11.8200   -10.3290 o          1 0KC      -0.911167
     19 OAJ         21.9730    12.9370   -12.6310 o          1 0KC      -0.911167
     20 OAH         20.8540    14.1220   -10.6590 o          1 0KC      -0.911167
     21 H1          22.9270     8.2520    -8.0710 hc         1 0KC       0.067950
     22 H2          21.7250     9.3830    -8.7000 hc         1 0KC       0.067950
     23 H3          20.3290     7.4360    -8.3850 hc         1 0KC       0.014950
     24 H4          21.6410     6.3420    -8.7860 hc         1 0KC       0.014950
     25 H5          19.7440     7.6050   -10.6810 hc         1 0KC       0.014950
     26 H6          20.8940     6.3150   -10.9750 hc         1 0KC       0.014950
     27 H7          22.0690     7.9830   -12.2200 hc         1 0KC       0.067950
     28 H8          21.2480     9.2840   -11.3590 hc         1 0KC       0.067950
     29 H9          23.5870     7.6360   -10.3480 h1         1 0KC       0.035700
     30 H10         23.1410    10.5820   -10.5100 hn         1 0KC       0.436500
     31 H11         26.5050    10.9240   -11.4380 h1         1 0KC       0.032700
     32 H12         26.0810    11.3520    -9.7740 h1         1 0KC       0.032700
     33 H13         26.9000    13.3640   -10.4340 ha         1 0KC       0.074000
     34 H14         26.8760    15.6850    -9.5980 ha         1 0KC       0.059000
     35 H15         24.7240    16.9240    -9.4500 ha         1 0KC       0.066000
     36 H16         22.6190    15.7940   -10.1180 ha         1 0KC       0.135000
@<TRIPOS>BOND
     1     1     2 1   
     2     1     5 1   
     3     1    21 1   
     4     1    22 1   
     5     2     3 1   
     6     2    23 1   
     7     2    24 1   
     8     3     4 1   
     9     3    25 1   
    10     3    26 1   
    11     4     5 1   
    12     4    27 1   
    13     4    28 1   
    14     5     6 1   
    15     5    29 1   
    16     6     7 1   
    17     6    30 1   
    18     7     8 2   
    19     7     9 1   
    20     9    10 1   
    21     9    31 1   
    22     9    32 1   
    23    10    11 1   
    24    11    12 ar  
    25    11    16 ar  
    26    12    13 ar  
    27    12    33 1   
    28    13    14 ar  
    29    13    34 1   
    30    14    15 ar  
    31    14    35 1   
    32    15    16 ar  
    33    15    36 1   
    34    16    17 1   
    35    17    18 1   
    36    17    19 1   
    37    17    20 1   
@<TRIPOS>SUBSTRUCTURE
     1 0KC         1 TEMP              0 ****  ****    0 ROOT
