@<TRIPOS>MOLECULE
0KC
   36    37     1     0     0
SMALL
No Charge or Current Charge


@<TRIPOS>ATOM
      1 CAS         22.5130     7.9080    -8.9990 c5         1 0KC      -0.101400
      2 CAR         21.3610     6.8790    -9.2130 c5         1 0KC      -0.073400
      3 CAQ         20.7270     7.2550   -10.5950 c5         1 0KC      -0.073400
      4 CAT         21.4070     8.5980   -10.9770 c5         1 0KC      -0.101400
      5 CAP         22.8350     8.3320   -10.4530 c5         1 0KC       0.121700
      6 NAN         23.4960     9.6370   -10.3710 ns         1 0KC      -0.461900
      7 CAM         24.8720     9.6720   -10.2110 c          1 0KC       0.578100
      8 OAO         25.5560     8.6520   -10.1390 o          1 0KC      -0.736100
      9 CAL         25.4940    11.0860   -10.1110 c3         1 0KC       0.095600
     10 OAK         24.7590    12.0160   -10.9240 os         1 0KC      -0.325100
     11 CAB         24.8130    13.3680   -10.6930 ca         1 0KC       0.157100
     12 CAA         26.0320    13.9910   -10.3540 ca         1 0KC      -0.225000
     13 CAF         26.0780    15.3760   -10.1340 ca         1 0KC      -0.136000
     14 CAE         24.9060    16.1400   -10.2500 ca         1 0KC      -0.184000
     15 CAD         23.6870    15.5200   -10.5800 ca         1 0KC      -0.058000
     16 CAC         23.6330    14.1270   -10.8000 ca         1 0KC      -0.138500
     17 PAG         22.0290    13.3120   -11.1790 p5         1 0KC       1.192000
     18 OAI         21.9610    11.9750   -10.5160 o          1 0KC      -0.911167
     19 OAJ         21.9390    13.1390   -12.6590 o          1 0KC      -0.911167
     20 OAH         20.9090    14.1850   -10.7180 o          1 0KC      -0.911167
     21 H1          23.3770     7.4680    -8.4880 hc         1 0KC       0.067950
     22 H2          22.1700     8.7530    -8.3890 hc         1 0KC       0.067950
     23 H3          20.6280     6.9290    -8.4000 hc         1 0KC       0.014950
     24 H4          21.7430     5.8520    -9.2320 hc         1 0KC       0.014950
     25 H5          19.6360     7.3500   -10.5400 hc         1 0KC       0.014950
     26 H6          20.9430     6.4830   -11.3430 hc         1 0KC       0.014950
     27 H7          21.3810     8.7930   -12.0550 hc         1 0KC       0.067950
     28 H8          20.9200     9.4410   -10.4730 hc         1 0KC       0.067950
     29 H9          23.3740     7.5700   -11.0340 h1         1 0KC       0.035700
     30 H10         23.0050    10.5410   -10.4400 hn         1 0KC       0.436500
     31 H11         26.5470    11.0420   -10.4170 h1         1 0KC       0.032700
     32 H12         25.4430    11.3850    -9.0560 h1         1 0KC       0.032700
     33 H13         26.9470    13.4090   -10.2750 ha         1 0KC       0.074000
     34 H14         27.0190    15.8570    -9.8780 ha         1 0KC       0.059000
     35 H15         24.9390    17.2130   -10.0800 ha         1 0KC       0.066000
     36 H16         22.7830    16.1190   -10.6580 ha         1 0KC       0.135000
@<TRIPOS>BOND
     1     1     2 1   
     2     1     5 1   
     3     1    21 1   
     4     1    22 1   
     5     2     3 1   
     6     2    23 1   
     7     2    24 1   
     8     3     4 1   
     9     3    25 1   
    10     3    26 1   
    11     4     5 1   
    12     4    27 1   
    13     4    28 1   
    14     5     6 1   
    15     5    29 1   
    16     6     7 1   
    17     6    30 1   
    18     7     8 2   
    19     7     9 1   
    20     9    10 1   
    21     9    31 1   
    22     9    32 1   
    23    10    11 1   
    24    11    12 ar  
    25    11    16 ar  
    26    12    13 ar  
    27    12    33 1   
    28    13    14 ar  
    29    13    34 1   
    30    14    15 ar  
    31    14    35 1   
    32    15    16 ar  
    33    15    36 1   
    34    16    17 1   
    35    17    18 1   
    36    17    19 1   
    37    17    20 1   
@<TRIPOS>SUBSTRUCTURE
     1 0KC         1 TEMP              0 ****  ****    0 ROOT
