@<TRIPOS>MOLECULE
0KD
   34    37     1     0     0
SMALL
abcg2


@<TRIPOS>ATOM
      1 C1          -3.5670     1.8990     0.2360 cc         1 0KD      -0.079000
      2 C2          -4.7570     2.5140     0.4530 cd         1 0KD      -0.254000
      3 S3          -6.0280     1.3810     0.6600 ss         1 0KD       0.247000
      4 C4          -4.9700     0.0620     0.4560 cd         1 0KD      -0.248000
      5 C5          -3.6830     0.4750     0.2360 cc         1 0KD      -0.144900
      6 C6          -2.5460    -0.3970     0.0260 cc         1 0KD       0.515400
      7 N7          -2.6450    -1.7530    -0.0500 na         1 0KD      -0.411300
      8 C8          -1.3860    -2.2370    -0.2500 ca         1 0KD       0.331500
      9 C9          -0.5630    -1.0940    -0.2880 ca         1 0KD       0.081400
     10 N10         -1.3140     0.0300    -0.1110 nd         1 0KD      -0.549100
     11 N11         -1.0150    -3.4930    -0.3760 nb         1 0KD      -0.648000
     12 C12          0.2910    -3.6630    -0.5490 ca         1 0KD       0.344900
     13 C13          1.2190    -2.6210    -0.5870 ca         1 0KD      -0.165000
     14 C14          0.8050    -1.2990    -0.4550 ca         1 0KD      -0.067600
     15 C15          1.7530    -0.1480    -0.5350 c          1 0KD       0.625700
     16 N16          2.9270    -0.3590     0.1120 ns         1 0KD      -0.141000
     17 C17          4.0340     0.4820     0.1990 ca         1 0KD      -0.069000
     18 C18          4.1790     1.7040    -0.4550 ca         1 0KD      -0.098000
     19 C19          5.3550     2.4130    -0.2620 ca         1 0KD      -0.136000
     20 C20          6.3410     1.8970     0.5610 ca         1 0KD       0.303900
     21 N21          6.2080     0.7310     1.1850 nb         1 0KD      -0.643000
     22 C22          5.0910     0.0510     1.0080 ca         1 0KD       0.282900
     23 O23          1.4670     0.8690    -1.1350 o          1 0KD      -0.540100
     24 H1          -2.6370     2.4240     0.0770 ha         1 0KD       0.164000
     25 H2          -4.9570     3.5730     0.4990 h4         1 0KD       0.157000
     26 H3          -5.3530    -0.9460     0.5170 h4         1 0KD       0.147000
     27 H4          -3.4830    -2.3110     0.0180 hn         1 0KD       0.372000
     28 H6           0.6340    -4.6840    -0.6660 h4         1 0KD       0.027100
     29 H7           2.2600    -2.8650    -0.7500 ha         1 0KD       0.127000
     30 H8           2.9990    -1.2150     0.6430 hn         1 0KD       0.157000
     31 H9           3.4090     2.1010    -1.0940 ha         1 0KD       0.153000
     32 H10          5.5000     3.3650    -0.7540 ha         1 0KD       0.125000
     33 H11          7.2660     2.4370     0.7240 h4         1 0KD       0.021100
     34 H12          5.0100    -0.8980     1.5320 h4         1 0KD       0.012100
@<TRIPOS>BOND
     1     1     2 2   
     2     1     5 1   
     3     1    24 1   
     4     2     3 1   
     5     2    25 1   
     6     3     4 1   
     7     4     5 2   
     8     4    26 1   
     9     5     6 1   
    10     6     7 1   
    11     6    10 2   
    12     7     8 1   
    13     7    27 1   
    14     8     9 ar  
    15     8    11 ar  
    16     9    10 1   
    17     9    14 ar  
    18    11    12 ar  
    19    12    13 ar  
    20    12    28 1   
    21    13    14 ar  
    22    13    29 1   
    23    14    15 1   
    24    15    16 1   
    25    15    23 2   
    26    16    17 1   
    27    16    30 1   
    28    17    18 ar  
    29    17    22 ar  
    30    18    19 ar  
    31    18    31 1   
    32    19    20 ar  
    33    19    32 1   
    34    20    21 ar  
    35    20    33 1   
    36    21    22 ar  
    37    22    34 1   
@<TRIPOS>SUBSTRUCTURE
     1 0KD         1 TEMP              0 ****  ****    0 ROOT
