@<TRIPOS>MOLECULE
0KD
   34    37     1     0     0
SMALL
No Charge or Current Charge


@<TRIPOS>ATOM
      1 C1          -3.8640     1.9030     0.0430 cc         1 0KD      -0.079000
      2 C2          -5.1130     2.4650     0.0480 cd         1 0KD      -0.254000
      3 S3          -6.3800     1.2250     0.0130 ss         1 0KD       0.247000
      4 C4          -5.1460    -0.0490    -0.0090 cd         1 0KD      -0.248000
      5 C5          -3.8750     0.4830     0.0110 cc         1 0KD      -0.144900
      6 C6          -2.6720    -0.3140    -0.0000 cc         1 0KD       0.515400
      7 N7          -2.7320    -1.6970    -0.0320 na         1 0KD      -0.411300
      8 C8          -1.4700    -2.1760    -0.0360 ca         1 0KD       0.331500
      9 C9          -0.6510    -1.0610    -0.0060 ca         1 0KD       0.081400
     10 N10         -1.4020     0.1170     0.0170 nd         1 0KD      -0.549100
     11 N11         -1.0410    -3.4470    -0.0620 nb         1 0KD      -0.648000
     12 C12          0.3000    -3.6250    -0.0580 ca         1 0KD       0.344900
     13 C13          1.2210    -2.5560    -0.0290 ca         1 0KD      -0.165000
     14 C14          0.7580    -1.2090    -0.0010 ca         1 0KD      -0.067600
     15 C15          1.7120    -0.0200     0.0320 c          1 0KD       0.625700
     16 N16          3.0650    -0.3500     0.0330 ns         1 0KD      -0.141000
     17 C17          4.2510     0.4420     0.0580 ca         1 0KD      -0.069000
     18 C18          4.2600     1.8550     0.0830 ca         1 0KD      -0.098000
     19 C19          5.5010     2.5160     0.1060 ca         1 0KD      -0.136000
     20 C20          6.6860     1.7610     0.1020 ca         1 0KD       0.303900
     21 N21          6.6920     0.4100     0.0780 nb         1 0KD      -0.643000
     22 C22          5.4970    -0.2250     0.0570 ca         1 0KD       0.282900
     23 O23          1.3220     1.1420     0.0540 o          1 0KD      -0.540100
     24 H1          -2.9410     2.4780     0.0610 ha         1 0KD       0.164000
     25 H2          -5.3790     3.5150     0.0710 h4         1 0KD       0.157000
     26 H3          -5.4530    -1.0880    -0.0340 h4         1 0KD       0.147000
     27 H4          -3.5720    -2.2500    -0.0490 hn         1 0KD       0.372000
     28 H6           0.6510    -4.6570    -0.0790 h4         1 0KD       0.027100
     29 H7           2.2780    -2.8020    -0.0280 ha         1 0KD       0.127000
     30 H8           3.2440    -1.3450     0.0140 hn         1 0KD       0.157000
     31 H9           3.3480     2.4450     0.0850 ha         1 0KD       0.153000
     32 H10          5.5510     3.6010     0.1250 ha         1 0KD       0.125000
     33 H11          7.6580     2.2530     0.1190 h4         1 0KD       0.021100
     34 H12          5.5390    -1.3140     0.0380 h4         1 0KD       0.012100
@<TRIPOS>BOND
     1     1     2 2   
     2     1     5 1   
     3     1    24 1   
     4     2     3 1   
     5     2    25 1   
     6     3     4 1   
     7     4     5 2   
     8     4    26 1   
     9     5     6 1   
    10     6     7 1   
    11     6    10 2   
    12     7     8 1   
    13     7    27 1   
    14     8     9 ar  
    15     8    11 ar  
    16     9    10 1   
    17     9    14 ar  
    18    11    12 ar  
    19    12    13 ar  
    20    12    28 1   
    21    13    14 ar  
    22    13    29 1   
    23    14    15 1   
    24    15    16 1   
    25    15    23 2   
    26    16    17 1   
    27    16    30 1   
    28    17    18 ar  
    29    17    22 ar  
    30    18    19 ar  
    31    18    31 1   
    32    19    20 ar  
    33    19    32 1   
    34    20    21 ar  
    35    20    33 1   
    36    21    22 ar  
    37    22    34 1   
@<TRIPOS>SUBSTRUCTURE
     1 0KD         1 TEMP              0 ****  ****    0 ROOT
