@<TRIPOS>MOLECULE
0KF
   53    57     1     0     0
SMALL
bcc


@<TRIPOS>ATOM
      1 C3           1.4400     2.8080     2.3250 ca         1 0KF      -0.094000
      2 C4           2.4280     1.9130     1.9380 ca         1 0KF      -0.144000
      3 C2           0.4660     3.2480     1.4430 ca         1 0KF      -0.145000
      4 C6           1.4720     1.8810    -0.2750 ca         1 0KF      -0.181000
      5 C11          5.4000    -0.8110    -1.5540 cc         1 0KF      -0.280300
      6 C23         -3.4220    -0.1800     0.1870 cc         1 0KF      -0.174100
      7 C5           2.4500     1.4440     0.6230 ca         1 0KF       0.085600
      8 C1           0.5050     2.7720     0.1450 ca         1 0KF       0.126100
      9 C10          5.3090    -0.8100    -0.1750 cd         1 0KF      -0.177900
     10 C12          6.3850    -1.7610    -1.8510 cc         1 0KF       0.316600
     11 C24         -4.6670    -0.3930    -0.3740 cd         1 0KF       0.185200
     12 C21         -3.9280     1.3500    -1.3310 cc         1 0KF      -0.085300
     13 C20         -3.6540     2.5030    -2.0890 cc         1 0KF      -0.022000
     14 C19         -2.4660     3.1330    -1.8950 cd         1 0KF      -0.253300
     15 C18         -1.5690     2.5870    -0.9350 cd         1 0KF       0.617600
     16 C8           4.4810     0.0120     0.7280 c          1 0KF       0.718700
     17 C27         -5.4570    -2.3890     0.7870 c          1 0KF       0.708100
     18 C30         -6.9720    -3.9040     2.1880 cx         1 0KF      -0.095400
     19 C31         -6.3330    -4.7660     1.1640 cx         1 0KF      -0.095400
     20 C29         -6.6110    -3.3180     0.8470 cx         1 0KF      -0.246700
     21 C16          6.8960    -2.1780    -3.1870 c3         1 0KF      -0.118400
     22 N13          6.8520    -2.2970    -0.7330 nd         1 0KF      -0.509800
     23 N25         -4.9720     0.5400    -1.2980 nd         1 0KF      -0.309600
     24 N32         -1.7950     1.5300    -0.2250 nc         1 0KF      -0.549800
     25 N22         -2.9680     0.9400    -0.4410 na         1 0KF       0.220200
     26 N14          6.2080    -1.7190     0.2690 na         1 0KF       0.157400
     27 N7           3.3940     0.5490     0.1160 ns         1 0KF      -0.462100
     28 O9           4.7700     0.1860     1.8980 o          1 0KF      -0.582100
     29 O28         -4.4670    -2.5050     1.4900 o          1 0KF      -0.592100
     30 O17         -0.4070     3.2400    -0.7790 os         1 0KF      -0.359400
     31 H1           1.4340     3.1670     3.3460 ha         1 0KF       0.140000
     32 H2           3.1630     1.5930     2.6560 ha         1 0KF       0.170000
     33 H3          -0.3000     3.9460     1.7550 ha         1 0KF       0.149000
     34 H4           1.4740     1.5340    -1.3010 ha         1 0KF       0.143000
     35 H5           4.8570    -0.1980    -2.2550 ha         1 0KF       0.160000
     36 H6          -2.8430    -0.6910     0.9320 h4         1 0KF       0.220000
     37 H7          -4.3820     2.8640    -2.8010 ha         1 0KF       0.168000
     38 H8          -2.1930     4.0240    -2.4410 ha         1 0KF       0.168000
     39 H10         -6.3780    -3.5940     3.0380 hc         1 0KF       0.082950
     40 H11         -5.3000    -5.0510     1.3080 hc         1 0KF       0.082950
     41 H12         -6.9410    -5.4970     0.6480 hc         1 0KF       0.082950
     42 H13         -7.4300    -3.1170     0.1650 hc         1 0KF       0.087700
     43 H14          7.3120    -1.3310    -3.7330 hc         1 0KF       0.049033
     44 H15          7.6770    -2.9290    -3.0840 hc         1 0KF       0.049033
     45 H16          6.0990    -2.5990    -3.8000 hc         1 0KF       0.049033
     46 H20          3.2320     0.2650    -0.8380 hn         1 0KF       0.327500
     47 N26         -5.5900    -1.3890    -0.1220 ns         1 0KF      -0.452100
     48 C15          6.5110    -2.1260     1.6260 c3         1 0KF       0.042600
     49 H9          -8.0270    -4.0320     2.3920 hc         1 0KF       0.082950
     50 H17          7.0020    -1.3280     2.1760 h1         1 0KF       0.067367
     51 H18          5.6080    -2.4200     2.1550 h1         1 0KF       0.067367
     52 H19          7.1770    -2.9810     1.5620 h1         1 0KF       0.067367
     53 H21         -6.4340    -1.3430    -0.6740 hn         1 0KF       0.336500
@<TRIPOS>BOND
     1     1     2 ar  
     2     1     3 ar  
     3     1    31 1   
     4     2     7 ar  
     5     2    32 1   
     6     3     8 ar  
     7     3    33 1   
     8     4     7 ar  
     9     4     8 ar  
    10     4    34 1   
    11     5     9 2   
    12     5    10 1   
    13     5    35 1   
    14     6    11 2   
    15     6    25 1   
    16     6    36 1   
    17     7    27 1   
    18     8    30 1   
    19     9    16 1   
    20     9    26 1   
    21    10    21 1   
    22    10    22 2   
    23    11    23 1   
    24    11    47 1   
    25    12    13 1   
    26    12    23 2   
    27    12    25 1   
    28    13    14 2   
    29    13    37 1   
    30    14    15 1   
    31    14    38 1   
    32    15    24 2   
    33    15    30 1   
    34    16    27 1   
    35    16    28 2   
    36    17    20 1   
    37    17    29 2   
    38    17    47 1   
    39    18    19 1   
    40    18    20 1   
    41    18    39 1   
    42    18    49 1   
    43    19    20 1   
    44    19    40 1   
    45    19    41 1   
    46    20    42 1   
    47    21    43 1   
    48    21    44 1   
    49    21    45 1   
    50    22    26 1   
    51    24    25 1   
    52    26    48 1   
    53    27    46 1   
    54    47    53 1   
    55    48    50 1   
    56    48    51 1   
    57    48    52 1   
@<TRIPOS>SUBSTRUCTURE
     1 0KF         1 TEMP              0 ****  ****    0 ROOT
