@<TRIPOS>MOLECULE
0KF
   53    57     1     0     0
SMALL
No Charge or Current Charge


@<TRIPOS>ATOM
      1 C3           1.2390     1.7250     2.4760 ca         1 0KF      -0.076000
      2 C4           2.4420     1.1360     2.0460 ca         1 0KF      -0.126000
      3 C2           0.2960     2.1700     1.5360 ca         1 0KF      -0.127000
      4 C6           1.7600     1.4440    -0.2670 ca         1 0KF      -0.163000
      5 C11          5.9720    -0.5880    -1.5690 cc         1 0KF      -0.197000
      6 C23         -3.8050    -0.5930     0.1630 cc         1 0KF      -0.224100
      7 C5           2.7150     0.9930     0.6660 ca         1 0KF      -0.007000
      8 C1           0.5540     2.0170     0.1640 ca         1 0KF       0.126100
      9 C10          6.0470    -0.6150    -0.2010 cd         1 0KF      -0.228600
     10 C12          7.1550    -1.1600    -2.0530 cc         1 0KF       0.251300
     11 C24         -5.0840    -0.6090    -0.3580 cd         1 0KF       0.185200
     12 C21         -4.1290     1.0870    -1.2820 cc         1 0KF      -0.136000
     13 C20         -3.7440     2.2380    -2.0180 cc         1 0KF      -0.004000
     14 C19         -2.4610     2.6880    -1.8310 cd         1 0KF      -0.170000
     15 C18         -1.6140     1.9650    -0.9150 cd         1 0KF       0.552300
     16 C8           5.0310    -0.1210     0.7710 c          1 0KF       0.651700
     17 C27         -5.9670    -2.6130     0.8340 c          1 0KF       0.641100
     18 C30         -8.4890    -2.7300     1.4810 cx         1 0KF      -0.095400
     19 C31         -7.7820    -3.7960     2.2850 cx         1 0KF      -0.095400
     20 C29         -7.2510    -3.4030     0.9200 cx         1 0KF      -0.246700
     21 C16          7.4410    -1.3070    -3.5190 c3         1 0KF      -0.118400
     22 N13          7.9770    -1.5490    -1.1030 nd         1 0KF      -0.509800
     23 N25         -5.2760     0.4350    -1.2520 nd         1 0KF      -0.309600
     24 N32         -1.9410     0.8750    -0.2020 nc         1 0KF      -0.549800
     25 N22         -3.2380     0.4840    -0.4400 na         1 0KF       0.270900
     26 N14          7.2900    -1.2110     0.0590 na         1 0KF       0.178800
     27 N7           3.9090     0.4150     0.1530 ns         1 0KF      -0.136000
     28 O9           5.1880    -0.1890     1.9840 o          1 0KF      -0.582100
     29 O28         -4.9700    -2.9210     1.4720 o          1 0KF      -0.592100
     30 O17         -0.3460     2.4700    -0.7720 os         1 0KF      -0.359400
     31 H1           1.0390     1.8370     3.5400 ha         1 0KF       0.122000
     32 H2           3.1470     0.8040     2.8010 ha         1 0KF       0.152000
     33 H3          -0.6310     2.6300     1.8700 ha         1 0KF       0.131000
     34 H4           1.9500     1.3480    -1.3330 ha         1 0KF       0.125000
     35 H5           5.1710    -0.2070    -2.1950 ha         1 0KF       0.142000
     36 H6          -3.2820    -1.2180     0.8700 h4         1 0KF       0.270000
     37 H7          -4.4430     2.7280    -2.6900 ha         1 0KF       0.150000
     38 H8          -2.0880     3.5600    -2.3540 ha         1 0KF       0.150000
     39 H10         -8.4090    -1.7030     1.8310 hc         1 0KF       0.082950
     40 H11         -7.2270    -3.4790     3.1660 hc         1 0KF       0.082950
     41 H12         -8.2690    -4.7640     2.3820 hc         1 0KF       0.082950
     42 H13         -7.3990    -4.1190     0.1150 hc         1 0KF       0.087700
     43 H14          7.4440    -0.3290    -4.0120 hc         1 0KF       0.049033
     44 H15          8.4170    -1.7760    -3.6900 hc         1 0KF       0.049033
     45 H16          6.6780    -1.9290    -4.0010 hc         1 0KF       0.049033
     46 H20          3.9490     0.3890    -0.8560 hn         1 0KF       0.161000
     47 N26         -6.0420    -1.5440    -0.0290 ns         1 0KF      -0.385100
     48 C15          7.8820    -1.4870     1.3780 c3         1 0KF       0.071900
     49 H9          -9.4510    -2.9840     1.0410 hc         1 0KF       0.082950
     50 H17          7.9990    -0.5470     1.9290 h1         1 0KF       0.067367
     51 H18          7.2250    -2.1610     1.9390 h1         1 0KF       0.067367
     52 H19          8.8650    -1.9590     1.2570 h1         1 0KF       0.067367
     53 H21         -6.9470    -1.4550    -0.4710 hn         1 0KF       0.336500
@<TRIPOS>BOND
     1     1     2 ar  
     2     1     3 ar  
     3     1    31 1   
     4     2     7 ar  
     5     2    32 1   
     6     3     8 ar  
     7     3    33 1   
     8     4     7 ar  
     9     4     8 ar  
    10     4    34 1   
    11     5     9 2   
    12     5    10 1   
    13     5    35 1   
    14     6    11 2   
    15     6    25 1   
    16     6    36 1   
    17     7    27 1   
    18     8    30 1   
    19     9    16 1   
    20     9    26 1   
    21    10    21 1   
    22    10    22 2   
    23    11    23 1   
    24    11    47 1   
    25    12    13 1   
    26    12    23 2   
    27    12    25 1   
    28    13    14 2   
    29    13    37 1   
    30    14    15 1   
    31    14    38 1   
    32    15    24 2   
    33    15    30 1   
    34    16    27 1   
    35    16    28 2   
    36    17    20 1   
    37    17    29 2   
    38    17    47 1   
    39    18    19 1   
    40    18    20 1   
    41    18    39 1   
    42    18    49 1   
    43    19    20 1   
    44    19    40 1   
    45    19    41 1   
    46    20    42 1   
    47    21    43 1   
    48    21    44 1   
    49    21    45 1   
    50    22    26 1   
    51    24    25 1   
    52    26    48 1   
    53    27    46 1   
    54    47    53 1   
    55    48    50 1   
    56    48    51 1   
    57    48    52 1   
@<TRIPOS>SUBSTRUCTURE
     1 0KF         1 TEMP              0 ****  ****    0 ROOT
