@<TRIPOS>MOLECULE
0KG
   39    40     1     0     0
SMALL
abcg2


@<TRIPOS>ATOM
      1 CAT         22.0100     8.5680   -11.0930 c6         1 0KG      -0.096400
      2 CAS         21.2750     7.2620   -10.7840 c6         1 0KG      -0.066400
      3 CAR         20.9450     7.1420    -9.2950 c6         1 0KG      -0.072400
      4 CAQ         22.2030     7.2880    -8.4370 c6         1 0KG      -0.066400
      5 CAU         22.9370     8.5940    -8.7460 c6         1 0KG      -0.096400
      6 CAP         23.2700     8.7060   -10.2380 c6         1 0KG       0.126700
      7 NAN         23.9560     9.9600   -10.5300 ns         1 0KG      -0.463900
      8 CAM         25.2850    10.0400   -10.5690 c          1 0KG       0.575100
      9 OAO         26.0640     9.0880   -10.4150 o          1 0KG      -0.737100
     10 CAL         25.8860    11.4220   -10.7880 c3         1 0KG       0.095600
     11 OAK         24.9200    12.3280   -11.2880 os         1 0KG      -0.325100
     12 CAB         24.8710    13.6080   -10.7990 ca         1 0KG       0.156100
     13 CAA         26.0260    14.2860   -10.4120 ca         1 0KG      -0.225000
     14 CAF         25.9370    15.5970    -9.9520 ca         1 0KG      -0.136000
     15 CAE         24.7000    16.2250    -9.8880 ca         1 0KG      -0.184000
     16 CAD         23.5580    15.5300   -10.2820 ca         1 0KG      -0.058000
     17 CAC         23.6050    14.2120   -10.7400 ca         1 0KG      -0.137500
     18 PAG         22.0470    13.3210   -11.2260 p5         1 0KG       1.192000
     19 OAI         20.9190    14.2530   -10.7910 o          1 0KG      -0.911833
     20 OAJ         22.0680    12.0020   -10.4340 o          1 0KG      -0.911833
     21 OAH         22.1300    13.1180   -12.7380 o          1 0KG      -0.911833
     22 H1          22.2820     8.6150   -12.1510 hc         1 0KG       0.068950
     23 H2          21.3560     9.4210   -10.8910 hc         1 0KG       0.068950
     24 H3          20.3620     7.2010   -11.3820 hc         1 0KG       0.015200
     25 H4          21.9040     6.4150   -11.0820 hc         1 0KG       0.015200
     26 H5          20.2300     7.9260    -9.0210 hc         1 0KG       0.024200
     27 H6          20.4590     6.1840    -9.0930 hc         1 0KG       0.024200
     28 H7          21.9480     7.2450    -7.3750 hc         1 0KG       0.015200
     29 H8          22.8730     6.4440    -8.6360 hc         1 0KG       0.015200
     30 H9          23.8590     8.6670    -8.1640 hc         1 0KG       0.068950
     31 H10         22.3090     9.4460    -8.4650 hc         1 0KG       0.068950
     32 H11         23.9590     7.8990   -10.4950 h1         1 0KG       0.032700
     33 H12         23.3710    10.8180   -10.5770 hn         1 0KG       0.436500
     34 H13         26.7240    11.3220   -11.4820 h1         1 0KG       0.033700
     35 H14         26.2810    11.7610    -9.8260 h1         1 0KG       0.033700
     36 H15         26.9920    13.8020   -10.4800 ha         1 0KG       0.074000
     37 H16         26.8370    16.1210    -9.6530 ha         1 0KG       0.059000
     38 H17         24.6220    17.2450    -9.5330 ha         1 0KG       0.066000
     39 H18         22.5870    16.0060   -10.2210 ha         1 0KG       0.136000
@<TRIPOS>BOND
     1     1     2 1   
     2     1     6 1   
     3     1    22 1   
     4     1    23 1   
     5     2     3 1   
     6     2    24 1   
     7     2    25 1   
     8     3     4 1   
     9     3    26 1   
    10     3    27 1   
    11     4     5 1   
    12     4    28 1   
    13     4    29 1   
    14     5     6 1   
    15     5    30 1   
    16     5    31 1   
    17     6     7 1   
    18     6    32 1   
    19     7     8 1   
    20     7    33 1   
    21     8     9 2   
    22     8    10 1   
    23    10    11 1   
    24    10    34 1   
    25    10    35 1   
    26    11    12 1   
    27    12    13 ar  
    28    12    17 ar  
    29    13    14 ar  
    30    13    36 1   
    31    14    15 ar  
    32    14    37 1   
    33    15    16 ar  
    34    15    38 1   
    35    16    17 ar  
    36    16    39 1   
    37    17    18 1   
    38    18    19 1   
    39    18    20 1   
    40    18    21 1   
@<TRIPOS>SUBSTRUCTURE
     1 0KG         1 TEMP              0 ****  ****    0 ROOT
