@<TRIPOS>MOLECULE
0KG
   39    40     1     0     0
SMALL
No Charge or Current Charge


@<TRIPOS>ATOM
      1 CAT         21.8650     8.7400   -10.9140 c6         1 0KG      -0.096400
      2 CAS         21.1030     7.3920   -10.8860 c6         1 0KG      -0.066400
      3 CAR         20.9080     6.8910    -9.4340 c6         1 0KG      -0.072400
      4 CAQ         22.2620     6.7970    -8.6900 c6         1 0KG      -0.066400
      5 CAU         23.0230     8.1470    -8.7360 c6         1 0KG      -0.096400
      6 CAP         23.2350     8.6280   -10.1960 c6         1 0KG       0.126700
      7 NAN         23.9470     9.9100   -10.2230 ns         1 0KG      -0.463900
      8 CAM         25.3160    10.0690   -10.1420 c          1 0KG       0.575100
      9 OAO         26.0720     9.1050   -10.0510 o          1 0KG      -0.737100
     10 CAL         25.8290    11.5280   -10.1580 c3         1 0KG       0.095600
     11 OAK         24.9660    12.3530   -10.9590 os         1 0KG      -0.325100
     12 CAB         24.9250    13.7150   -10.7940 ca         1 0KG       0.156100
     13 CAA         26.1100    14.4500   -10.5850 ca         1 0KG      -0.225000
     14 CAF         26.0560    15.8450   -10.4310 ca         1 0KG      -0.136000
     15 CAE         24.8190    16.5050   -10.4850 ca         1 0KG      -0.184000
     16 CAD         23.6350    15.7730   -10.6850 ca         1 0KG      -0.058000
     17 CAC         23.6800    14.3710   -10.8370 ca         1 0KG      -0.137500
     18 PAG         22.1260    13.4110   -11.0460 p5         1 0KG       1.192000
     19 OAI         20.9760    14.2130   -10.5330 o          1 0KG      -0.911833
     20 OAJ         22.2240    12.1090   -10.3220 o          1 0KG      -0.911833
     21 OAH         21.9340    13.1570   -12.5050 o          1 0KG      -0.911833
     22 H1          22.0150     9.0570   -11.9550 hc         1 0KG       0.068950
     23 H2          21.2510     9.5150   -10.4360 hc         1 0KG       0.068950
     24 H3          20.1250     7.5060   -11.3750 hc         1 0KG       0.015200
     25 H4          21.6570     6.6410   -11.4660 hc         1 0KG       0.015200
     26 H5          20.2370     7.5730    -8.8950 hc         1 0KG       0.024200
     27 H6          20.4170     5.9090    -9.4410 hc         1 0KG       0.024200
     28 H7          22.0940     6.4990    -7.6460 hc         1 0KG       0.015200
     29 H8          22.8800     6.0100    -9.1440 hc         1 0KG       0.015200
     30 H9          23.9940     8.0350    -8.2350 hc         1 0KG       0.068950
     31 H10         22.4650     8.9050    -8.1690 hc         1 0KG       0.068950
     32 H11         23.8450     7.8850   -10.7310 h1         1 0KG       0.032700
     33 H12         23.3920    10.7760   -10.2960 hn         1 0KG       0.436500
     34 H13         26.8580    11.5470   -10.5390 h1         1 0KG       0.033700
     35 H14         25.8290    11.8800    -9.1180 h1         1 0KG       0.033700
     36 H15         27.0730    13.9480   -10.5550 ha         1 0KG       0.074000
     37 H16         26.9700    16.4120   -10.2750 ha         1 0KG       0.059000
     38 H17         24.7750    17.5850   -10.3670 ha         1 0KG       0.066000
     39 H18         22.6790    16.2930   -10.7160 ha         1 0KG       0.136000
@<TRIPOS>BOND
     1     1     2 1   
     2     1     6 1   
     3     1    22 1   
     4     1    23 1   
     5     2     3 1   
     6     2    24 1   
     7     2    25 1   
     8     3     4 1   
     9     3    26 1   
    10     3    27 1   
    11     4     5 1   
    12     4    28 1   
    13     4    29 1   
    14     5     6 1   
    15     5    30 1   
    16     5    31 1   
    17     6     7 1   
    18     6    32 1   
    19     7     8 1   
    20     7    33 1   
    21     8     9 2   
    22     8    10 1   
    23    10    11 1   
    24    10    34 1   
    25    10    35 1   
    26    11    12 1   
    27    12    13 ar  
    28    12    17 ar  
    29    13    14 ar  
    30    13    36 1   
    31    14    15 ar  
    32    14    37 1   
    33    15    16 ar  
    34    15    38 1   
    35    16    17 ar  
    36    16    39 1   
    37    17    18 1   
    38    18    19 1   
    39    18    20 1   
    40    18    21 1   
@<TRIPOS>SUBSTRUCTURE
     1 0KG         1 TEMP              0 ****  ****    0 ROOT
