@<TRIPOS>MOLECULE
0KH
   33    34     1     0     0
SMALL
abcg2


@<TRIPOS>ATOM
      1 OAC         22.0520    12.4400    -9.4700 o          1 0KH      -0.893833
      2 PAW         21.8880    13.7260   -10.3080 p5         1 0KH       1.199000
      3 OAD         20.9700    14.7410    -9.6380 o          1 0KH      -0.893833
      4 OAB         21.5530    13.4520   -11.7700 o          1 0KH      -0.893833
      5 CAV         23.5720    14.5130   -10.3000 ca         1 0KH      -0.145500
      6 CAM         23.7500    15.8380    -9.8990 ca         1 0KH      -0.056000
      7 CAH         25.0070    16.4380    -9.8510 ca         1 0KH      -0.181000
      8 CAG         26.1300    15.7050   -10.2130 ca         1 0KH      -0.134000
      9 CAL         25.9910    14.3830   -10.6290 ca         1 0KH      -0.219000
     10 CAU         24.7240    13.8050   -10.6720 ca         1 0KH       0.153100
     11 OAP         24.5410    12.5200   -11.1170 os         1 0KH      -0.324100
     12 CAN         25.4900    11.5250   -10.7870 c3         1 0KH       0.100600
     13 CAQ         24.7980    10.2130   -10.4500 c          1 0KH       0.588100
     14 OAA         25.4580     9.1730   -10.4540 o          1 0KH      -0.702100
     15 NAO         23.4920    10.2970   -10.1400 ns         1 0KH      -0.151000
     16 CAS         22.7390     9.1550    -9.7990 ca         1 0KH       0.048000
     17 CAT         22.4230     8.1740   -10.7500 ca         1 0KH       0.119000
     18 CL1         22.9440     8.3670   -12.3930 cl         1 0KH      -0.177000
     19 CAR         21.6590     7.0680   -10.3740 ca         1 0KH       0.124000
     20 CL2         21.2600     5.8250   -11.5290 cl         1 0KH      -0.250000
     21 CAJ         21.1870     6.9390    -9.0750 ca         1 0KH      -0.147000
     22 CAI         21.4790     7.9240    -8.1420 ca         1 0KH      -0.111000
     23 CAK         22.2520     9.0190    -8.5010 ca         1 0KH      -0.095000
     24 H3          22.8730    16.3980    -9.6000 ha         1 0KH       0.134000
     25 H4          25.1070    17.4670    -9.5270 ha         1 0KH       0.068000
     26 H5          27.1150    16.1550   -10.1810 ha         1 0KH       0.061000
     27 H6          26.8610    13.8130   -10.9290 ha         1 0KH       0.076000
     28 H7          26.1710    11.3360   -11.6210 h1         1 0KH       0.035700
     29 H8          26.0870    11.8190    -9.9190 h1         1 0KH       0.035700
     30 H9          23.0150    11.2330    -9.9650 hn         1 0KH       0.287000
     31 H10         20.5960     6.0750    -8.8070 ha         1 0KH       0.100000
     32 H11         21.1100     7.8290    -7.1300 ha         1 0KH       0.097000
     33 H12         22.4950     9.7870    -7.7790 ha         1 0KH       0.147000
@<TRIPOS>BOND
     1     1     2 1   
     2     2     3 1   
     3     2     4 1   
     4     2     5 1   
     5     5     6 ar  
     6     5    10 ar  
     7     6     7 ar  
     8     6    24 1   
     9     7     8 ar  
    10     7    25 1   
    11     8     9 ar  
    12     8    26 1   
    13     9    10 ar  
    14     9    27 1   
    15    10    11 1   
    16    11    12 1   
    17    12    13 1   
    18    12    28 1   
    19    12    29 1   
    20    13    14 2   
    21    13    15 1   
    22    15    16 1   
    23    15    30 1   
    24    16    17 ar  
    25    16    23 ar  
    26    17    18 1   
    27    17    19 ar  
    28    19    20 1   
    29    19    21 ar  
    30    21    22 ar  
    31    21    31 1   
    32    22    23 ar  
    33    22    32 1   
    34    23    33 1   
@<TRIPOS>SUBSTRUCTURE
     1 0KH         1 TEMP              0 ****  ****    0 ROOT
