@<TRIPOS>MOLECULE
0KH
   33    34     1     0     0
SMALL
No Charge or Current Charge


@<TRIPOS>ATOM
      1 OAC         22.1040    12.4940    -9.3320 o          1 0KH      -0.893833
      2 PAW         21.9470    13.8260    -9.9910 p5         1 0KH       1.199000
      3 OAD         21.0900    14.7250    -9.1610 o          1 0KH      -0.893833
      4 OAB         21.3210    13.6470   -11.3340 o          1 0KH      -0.893833
      5 CAV         23.5920    14.6120   -10.2360 ca         1 0KH      -0.145500
      6 CAM         23.7510    15.9990   -10.0330 ca         1 0KH      -0.056000
      7 CAH         25.0120    16.6010   -10.1890 ca         1 0KH      -0.181000
      8 CAG         26.1240    15.8260   -10.5470 ca         1 0KH      -0.134000
      9 CAL         25.9760    14.4450   -10.7540 ca         1 0KH      -0.219000
     10 CAU         24.7100    13.8390   -10.6050 ca         1 0KH       0.153100
     11 OAP         24.5440    12.4920   -10.8130 os         1 0KH      -0.324100
     12 CAN         25.5780    11.5350   -10.5200 c3         1 0KH       0.100600
     13 CAQ         24.9660    10.1280   -10.3430 c          1 0KH       0.588100
     14 OAA         25.6210     9.0980   -10.5080 o          1 0KH      -0.702100
     15 NAO         23.6390    10.1140    -9.9420 ns         1 0KH      -0.151000
     16 CAS         22.7700     9.0130    -9.7480 ca         1 0KH       0.048000
     17 CAT         22.4920     8.0770   -10.7760 ca         1 0KH       0.119000
     18 Cl1         23.1620     8.2860   -12.4040 cl         1 0KH      -0.177000
     19 CAR         21.6200     6.9960   -10.5170 ca         1 0KH       0.124000
     20 Cl2         21.2400     5.8060   -11.7660 cl         1 0KH      -0.250000
     21 CAJ         21.0230     6.8540    -9.2530 ca         1 0KH      -0.147000
     22 CAI         21.2800     7.7950    -8.2440 ca         1 0KH      -0.111000
     23 CAK         22.1450     8.8730    -8.4940 ca         1 0KH      -0.095000
     24 H3          22.8950    16.6100    -9.7490 ha         1 0KH       0.134000
     25 H4          25.1250    17.6710   -10.0290 ha         1 0KH       0.068000
     26 H5          27.0990    16.2940   -10.6670 ha         1 0KH       0.061000
     27 H6          26.8430    13.8580   -11.0440 ha         1 0KH       0.076000
     28 H7          26.3250    11.5060   -11.3230 h1         1 0KH       0.035700
     29 H8          26.0750    11.7920    -9.5760 h1         1 0KH       0.035700
     30 H9          23.2210    11.0320    -9.7850 hn         1 0KH       0.287000
     31 H10         20.3520     6.0200    -9.0600 ha         1 0KH       0.100000
     32 H11         20.8090     7.6900    -7.2690 ha         1 0KH       0.097000
     33 H12         22.3390     9.5990    -7.7070 ha         1 0KH       0.147000
@<TRIPOS>BOND
     1     1     2 1   
     2     2     3 1   
     3     2     4 1   
     4     2     5 1   
     5     5     6 ar  
     6     5    10 ar  
     7     6     7 ar  
     8     6    24 1   
     9     7     8 ar  
    10     7    25 1   
    11     8     9 ar  
    12     8    26 1   
    13     9    10 ar  
    14     9    27 1   
    15    10    11 1   
    16    11    12 1   
    17    12    13 1   
    18    12    28 1   
    19    12    29 1   
    20    13    14 2   
    21    13    15 1   
    22    15    16 1   
    23    15    30 1   
    24    16    17 ar  
    25    16    23 ar  
    26    17    18 1   
    27    17    19 ar  
    28    19    20 1   
    29    19    21 ar  
    30    21    22 ar  
    31    21    31 1   
    32    22    23 ar  
    33    22    32 1   
    34    23    33 1   
@<TRIPOS>SUBSTRUCTURE
     1 0KH         1 TEMP              0 ****  ****    0 ROOT
