@<TRIPOS>MOLECULE
0KI
   32    33     1     0     0
SMALL
No Charge or Current Charge


@<TRIPOS>ATOM
      1 C10         14.5290    10.5480    -6.7660 c3         1 0KI      -0.086100
      2 C13         21.4160    11.0880    -6.2560 c          1 0KI       0.717000
      3 C1          15.9980     8.6150    -6.0170 ca         1 0KI      -0.159300
      4 C2          15.7760     8.0790    -4.7220 ca         1 0KI      -0.123000
      5 C3          16.8630     7.6870    -3.9130 ca         1 0KI       0.106000
      6 C4          18.1590     7.8430    -4.4260 ca         1 0KI      -0.068200
      7 C5          18.3780     8.3600    -5.6680 ca         1 0KI      -0.075800
      8 C6          17.3200     8.7590    -6.5000 ca         1 0KI      -0.033000
      9 C7          20.4410     7.8490    -4.7200 cc         1 0KI      -0.077300
     10 C8          19.8160     8.3780    -5.8660 cd         1 0KI      -0.104400
     11 C9          14.8200     9.0410    -6.8830 c3         1 0KI      -0.005100
     12 C11         20.4480     8.9000    -7.1440 c3         1 0KI       0.018800
     13 C12         20.4400    10.4450    -7.2620 c3         1 0KI      -0.193400
     14 C14         21.9010     7.6430    -4.4510 c          1 0KI       0.737200
     15 N1          19.3730     7.5380    -3.8450 na         1 0KI      -0.187700
     16 O1          20.9900    11.4150    -5.1580 o          1 0KI      -0.744000
     17 O2          22.5680    11.2800    -6.6160 o          1 0KI      -0.744000
     18 O3          22.7430     7.9100    -5.2950 o          1 0KI      -0.718000
     19 O4          22.2050     7.1720    -3.3630 o          1 0KI      -0.718000
     20 Cl1         16.5950     7.0190    -2.3060 cl         1 0KI      -0.275000
     21 H1          13.6770    10.8230    -7.3990 hc         1 0KI       0.025033
     22 H2          14.2910    10.8150    -5.7300 hc         1 0KI       0.025033
     23 H3          15.3990    11.1350    -7.0850 hc         1 0KI       0.025033
     24 H4          14.7630     7.9690    -4.3430 ha         1 0KI       0.087000
     25 H5          17.5120     9.1690    -7.4890 ha         1 0KI       0.107000
     26 H6          13.9190     8.4820    -6.6040 hc         1 0KI       0.020200
     27 H7          15.0180     8.7970    -7.9340 hc         1 0KI       0.020200
     28 H8          19.8850     8.4970    -7.9950 hc         1 0KI       0.033200
     29 H9          21.4660     8.5280    -7.2900 hc         1 0KI       0.033200
     30 H10         20.7650    10.6520    -8.2900 hc         1 0KI      -0.002800
     31 H11         19.4090    10.7610    -7.0620 hc         1 0KI      -0.002800
     32 H12         19.4890     7.1380    -2.9190 hn         1 0KI       0.364000
@<TRIPOS>BOND
     1     1    11 1   
     2     1    21 1   
     3     1    22 1   
     4     1    23 1   
     5     2    13 1   
     6     2    16 1   
     7     2    17 1   
     8     3     4 ar  
     9     3     8 ar  
    10     3    11 1   
    11     4     5 ar  
    12     4    24 1   
    13     5     6 ar  
    14     5    20 1   
    15     6     7 ar  
    16     6    15 1   
    17     7     8 ar  
    18     7    10 1   
    19     8    25 1   
    20     9    10 2   
    21     9    14 1   
    22     9    15 1   
    23    10    12 1   
    24    11    26 1   
    25    11    27 1   
    26    12    13 1   
    27    12    28 1   
    28    12    29 1   
    29    13    30 1   
    30    13    31 1   
    31    14    18 1   
    32    14    19 1   
    33    15    32 1   
@<TRIPOS>SUBSTRUCTURE
     1 0KI         1 TEMP              0 ****  ****    0 ROOT
