@<TRIPOS>MOLECULE
0KI
   32    33     1     0     0
SMALL
bcc


@<TRIPOS>ATOM
      1 C10         14.4190    10.5130    -6.4570 c3         1 0KI      -0.086100
      2 C13         21.0360    11.2050    -6.3180 c          1 0KI       0.927600
      3 C1          16.1060     8.6820    -6.0680 ca         1 0KI      -0.159300
      4 C2          15.8800     8.1810    -4.7700 ca         1 0KI      -0.141000
      5 C3          16.9290     7.7860    -3.9720 ca         1 0KI       0.014400
      6 C4          18.2300     7.8880    -4.4540 ca         1 0KI      -0.068200
      7 C5          18.4800     8.3900    -5.7490 ca         1 0KI      -0.075800
      8 C6          17.3980     8.7830    -6.5490 ca         1 0KI      -0.051000
      9 C7          20.4350     7.8200    -4.7910 cc         1 0KI      -0.077300
     10 C8          19.9000     8.3440    -5.9480 cd         1 0KI      -0.104400
     11 C9          14.9310     9.1410    -6.8890 c3         1 0KI      -0.005100
     12 C11         20.6020     8.8140    -7.1830 c3         1 0KI       0.018800
     13 C12         20.4540    10.3200    -7.4380 c3         1 0KI      -0.193400
     14 C14         21.8400     7.4670    -4.3630 c          1 0KI       0.947800
     15 N1          19.4200     7.5600    -3.9020 na         1 0KI      -0.137400
     16 O1          20.2730    12.0540    -5.8110 o          1 0KI      -0.849300
     17 O2          22.2350    11.0150    -6.0210 o          1 0KI      -0.849300
     18 O3          22.7350     7.5190    -5.2240 o          1 0KI      -0.823300
     19 O4          21.9550     7.1330    -3.1660 o          1 0KI      -0.823300
     20 CL1         16.6590     7.1490    -2.3810 cl         1 0KI      -0.183400
     21 H1          13.5660    10.8230    -7.0610 hc         1 0KI       0.025033
     22 H2          14.1020    10.5050    -5.4130 hc         1 0KI       0.025033
     23 H3          15.1970    11.2710    -6.5610 hc         1 0KI       0.025033
     24 H4          14.8650     8.0980    -4.3980 ha         1 0KI       0.105000
     25 H5          17.5690     9.1600    -7.5510 ha         1 0KI       0.125000
     26 H6          14.1180     8.4140    -6.8110 hc         1 0KI       0.020200
     27 H7          15.2140     9.1740    -7.9430 hc         1 0KI       0.020200
     28 H8          20.2050     8.2750    -8.0500 hc         1 0KI       0.033200
     29 H9          21.6560     8.5560    -7.1130 hc         1 0KI       0.033200
     30 H10         20.9770    10.5530    -8.3730 hc         1 0KI      -0.002800
     31 H11         19.4040    10.5700    -7.6040 hc         1 0KI      -0.002800
     32 H12         19.5820     7.1730    -2.9860 hn         1 0KI       0.313700
@<TRIPOS>BOND
     1     1    11 1   
     2     1    21 1   
     3     1    22 1   
     4     1    23 1   
     5     2    13 1   
     6     2    16 1   
     7     2    17 1   
     8     3     4 ar  
     9     3     8 ar  
    10     3    11 1   
    11     4     5 ar  
    12     4    24 1   
    13     5     6 ar  
    14     5    20 1   
    15     6     7 ar  
    16     6    15 1   
    17     7     8 ar  
    18     7    10 1   
    19     8    25 1   
    20     9    10 2   
    21     9    14 1   
    22     9    15 1   
    23    10    12 1   
    24    11    26 1   
    25    11    27 1   
    26    12    13 1   
    27    12    28 1   
    28    12    29 1   
    29    13    30 1   
    30    13    31 1   
    31    14    18 1   
    32    14    19 1   
    33    15    32 1   
@<TRIPOS>SUBSTRUCTURE
     1 0KI         1 TEMP              0 ****  ****    0 ROOT
