@<TRIPOS>MOLECULE
0KJ
   76    79     1     0     0
SMALL
No Charge or Current Charge


@<TRIPOS>ATOM
      1 O28         20.3210    24.0160     9.7600 o          1 0KJ      -0.564000
      2 C27         20.9110    25.0370    10.0730 c          1 0KJ       0.563000
      3 N29         22.2250    25.0500    10.4560 ns         1 0KJ      -0.510900
      4 C24         22.9010    26.3520    10.3360 c5         1 0KJ       0.094700
      5 C25         21.8770    27.1540     9.4640 c5         1 0KJ      -0.081400
      6 C26         20.5290    26.4860     9.8240 c5         1 0KJ      -0.163400
      7 C22         23.3150    26.9710    11.7100 c3         1 0KJ       0.154600
      8 O23         22.2140    26.9760    12.6490 os         1 0KJ      -0.470100
      9 C21         21.4340    28.0880    12.7530 c          1 0KJ       0.637100
     10 O22         21.5910    29.1370    12.1530 o          1 0KJ      -0.542000
     11 N20         20.4600    27.8430    13.6730 ns         1 0KJ      -0.496900
     12 C19         19.4230    28.7990    14.0820 c3         1 0KJ       0.143700
     13 C32         18.0260    28.1220    14.0190 c3         1 0KJ      -0.037100
     14 C38         17.6920    27.5610    12.6400 ca         1 0KJ      -0.081300
     15 C37         17.6400    26.1680    12.4270 ca         1 0KJ      -0.100000
     16 C36         17.3170    25.6560    11.1580 ca         1 0KJ      -0.115500
     17 C35         17.0420    26.5320    10.0950 ca         1 0KJ      -0.113000
     18 C34         17.0980    27.9210    10.2990 ca         1 0KJ      -0.115500
     19 C33         17.4220    28.4330    11.5670 ca         1 0KJ      -0.100000
     20 C17         19.7790    29.4350    15.4640 c3         1 0KJ       0.148300
     21 O18         19.6610    28.4530    16.5170 oh         1 0KJ      -0.665000
     22 C16         18.9320    30.6980    15.8120 c3         1 0KJ       0.183800
     23 N11         19.1680    31.8750    14.9230 n3         1 0KJ      -0.747500
     24 C12         20.0740    32.9000    15.5120 c3         1 0KJ       0.205800
     25 C13         21.5450    32.4620    15.7540 c3         1 0KJ      -0.059700
     26 C14         22.2620    32.0870    14.4320 c3         1 0KJ      -0.088100
     27 C15         22.3430    33.5140    16.5770 c3         1 0KJ      -0.076400
     28 C18         22.5070    34.9030    15.9190 c3         1 0KJ      -0.090100
     29 S8          17.7470    32.5460    14.2440 sy         1 0KJ       1.193600
     30 O10         16.9590    31.4160    13.7440 o          1 0KJ      -0.539000
     31 O9          18.1890    33.6050    13.3300 o          1 0KJ      -0.539000
     32 C5          16.9280    33.2730    15.6740 ca         1 0KJ      -0.306500
     33 C6          16.0020    32.5180    16.4340 ca         1 0KJ      -0.030000
     34 C7          15.3730    33.0910    17.5560 ca         1 0KJ      -0.070000
     35 C4          17.2100    34.6080    16.0380 ca         1 0KJ       0.031000
     36 C3          16.5670    35.1450    17.1620 ca         1 0KJ      -0.210000
     37 S1          16.7850    36.7730    17.7830 ss         1 0KJ       0.039800
     38 C1          15.6110    36.3060    19.0340 cc         1 0KJ       0.406100
     39 N1          15.1000    35.0650    19.0020 nd         1 0KJ      -0.528100
     40 C2          15.6680    34.4150    17.9130 ca         1 0KJ       0.133400
     41 H1          22.6920    24.1590    10.5820 hn         1 0KJ       0.323500
     42 H2          23.8340    26.2440     9.7660 h1         1 0KJ       0.065700
     43 H3          21.8940    28.2330     9.6520 hc         1 0KJ       0.063700
     44 H4          22.0970    27.0150     8.3990 hc         1 0KJ       0.063700
     45 H5          20.1590    26.9000    10.7650 hc         1 0KJ       0.076700
     46 H6          19.7450    26.5720     9.0650 hc         1 0KJ       0.076700
     47 H7          24.1240    26.3480    12.1120 h1         1 0KJ       0.069700
     48 H8          23.7350    27.9750    11.5590 h1         1 0KJ       0.069700
     49 H9          20.4810    26.9320    14.1090 hn         1 0KJ       0.333500
     50 H10         19.4160    29.6190    13.3510 h1         1 0KJ       0.097700
     51 H11         17.2530    28.8410    14.3070 hc         1 0KJ       0.064700
     52 H12         17.9800    27.3230    14.7690 hc         1 0KJ       0.064700
     53 H13         17.8490    25.4810    13.2440 ha         1 0KJ       0.122000
     54 H14         17.2790    24.5810    11.0000 ha         1 0KJ       0.110000
     55 H15         16.7920    26.1350     9.1130 ha         1 0KJ       0.108000
     56 H16         16.8890    28.6000     9.4760 ha         1 0KJ       0.110000
     57 H17         17.4560    29.5100    11.7180 ha         1 0KJ       0.122000
     58 H18         20.8270    29.7490    15.3970 h1         1 0KJ       0.053700
     59 H19         20.2200    28.7550    17.2670 ho         1 0KJ       0.444000
     60 H20         19.1430    30.9780    16.8530 h1         1 0KJ       0.056700
     61 H21         17.8790    30.3940    15.8090 h1         1 0KJ       0.056700
     62 H22         20.1190    33.7790    14.8560 h1         1 0KJ       0.051700
     63 H23         19.6580    33.2480    16.4680 h1         1 0KJ       0.051700
     64 H24         21.5270    31.5650    16.3820 hc         1 0KJ       0.039700
     65 H25         23.2900    31.7570    14.6270 hc         1 0KJ       0.045367
     66 H26         21.7390    31.2710    13.9220 hc         1 0KJ       0.045367
     67 H27         22.2960    32.9390    13.7440 hc         1 0KJ       0.045367
     68 H28         21.8530    33.6460    17.5500 hc         1 0KJ       0.039200
     69 H29         23.3400    33.1110    16.7930 hc         1 0KJ       0.039200
     70 H30         23.0850    35.5630    16.5760 hc         1 0KJ       0.035367
     71 H31         23.0410    34.8310    14.9640 hc         1 0KJ       0.035367
     72 H32         21.5350    35.3770    15.7410 hc         1 0KJ       0.035367
     73 H33         15.7660    31.4910    16.1600 ha         1 0KJ       0.140000
     74 H34         14.6630    32.5130    18.1420 ha         1 0KJ       0.141000
     75 H35         17.9130    35.2140    15.4670 ha         1 0KJ       0.144000
     76 H36         15.3470    37.0440    19.7810 h5         1 0KJ       0.064800
@<TRIPOS>BOND
     1     1     2 2   
     2     2     3 1   
     3     2     6 1   
     4     3     4 1   
     5     3    41 1   
     6     4     5 1   
     7     4     7 1   
     8     4    42 1   
     9     5     6 1   
    10     5    43 1   
    11     5    44 1   
    12     6    45 1   
    13     6    46 1   
    14     7     8 1   
    15     7    47 1   
    16     7    48 1   
    17     8     9 1   
    18     9    10 2   
    19     9    11 1   
    20    11    12 1   
    21    11    49 1   
    22    12    13 1   
    23    12    20 1   
    24    12    50 1   
    25    13    14 1   
    26    13    51 1   
    27    13    52 1   
    28    14    15 ar  
    29    14    19 ar  
    30    15    16 ar  
    31    15    53 1   
    32    16    17 ar  
    33    16    54 1   
    34    17    18 ar  
    35    17    55 1   
    36    18    19 ar  
    37    18    56 1   
    38    19    57 1   
    39    20    21 1   
    40    20    22 1   
    41    20    58 1   
    42    21    59 1   
    43    22    23 1   
    44    22    60 1   
    45    22    61 1   
    46    23    24 1   
    47    23    29 1   
    48    24    25 1   
    49    24    62 1   
    50    24    63 1   
    51    25    26 1   
    52    25    27 1   
    53    25    64 1   
    54    26    65 1   
    55    26    66 1   
    56    26    67 1   
    57    27    28 1   
    58    27    68 1   
    59    27    69 1   
    60    28    70 1   
    61    28    71 1   
    62    28    72 1   
    63    29    30 2   
    64    29    31 2   
    65    29    32 1   
    66    32    33 ar  
    67    32    35 ar  
    68    33    34 ar  
    69    33    73 1   
    70    34    40 ar  
    71    34    74 1   
    72    35    36 ar  
    73    35    75 1   
    74    36    37 1   
    75    36    40 ar  
    76    37    38 1   
    77    38    39 2   
    78    38    76 1   
    79    39    40 1   
@<TRIPOS>SUBSTRUCTURE
     1 0KJ         1 TEMP              0 ****  ****    0 ROOT
