@<TRIPOS>MOLECULE
0KJ
   76    79     1     0     0
SMALL
abcg2


@<TRIPOS>ATOM
      1 O28         22.0720    23.1800    12.0130 o          1 0KJ      -0.564000
      2 C27         21.9790    24.2010    11.3350 c          1 0KJ       0.563000
      3 N29         23.0110    24.9440    10.8880 ns         1 0KJ      -0.510900
      4 C24         22.6440    26.1690    10.1880 c5         1 0KJ       0.094700
      5 C25         21.1460    25.9380     9.8750 c5         1 0KJ      -0.081400
      6 C26         20.6950    24.8580    10.8660 c5         1 0KJ      -0.163400
      7 C22         22.9160    27.4140    11.0200 c3         1 0KJ       0.154600
      8 O23         22.1050    27.3970    12.2070 os         1 0KJ      -0.470100
      9 C21         21.2000    28.3960    12.3800 c          1 0KJ       0.637100
     10 O22         21.1070    29.3690    11.6480 o          1 0KJ      -0.542000
     11 N20         20.4490    28.1550    13.4680 ns         1 0KJ      -0.496900
     12 C19         19.4170    29.0570    13.9540 c3         1 0KJ       0.143700
     13 C32         18.0220    28.4270    13.7950 c3         1 0KJ      -0.037100
     14 C38         17.6990    28.1170    12.3570 ca         1 0KJ      -0.081300
     15 C37         17.7660    26.8110    11.8760 ca         1 0KJ      -0.100000
     16 C36         17.5110    26.5260    10.5380 ca         1 0KJ      -0.115500
     17 C35         17.1800    27.5500     9.6580 ca         1 0KJ      -0.113000
     18 C34         17.1040    28.8590    10.1280 ca         1 0KJ      -0.115500
     19 C33         17.3610    29.1390    11.4650 ca         1 0KJ      -0.100000
     20 C17         19.7510    29.4540    15.3930 c3         1 0KJ       0.148300
     21 O18         19.5290    28.3140    16.2260 oh         1 0KJ      -0.665000
     22 C16         18.9380    30.6370    15.9310 c3         1 0KJ       0.183800
     23 N11         19.2350    31.9070    15.2500 n3         1 0KJ      -0.747500
     24 C12         20.2330    32.7830    15.8960 c3         1 0KJ       0.205800
     25 C13         21.6810    32.3390    15.6740 c3         1 0KJ      -0.059700
     26 C14         22.0210    32.2220    14.1890 c3         1 0KJ      -0.088100
     27 C15         22.6340    33.2840    16.4310 c3         1 0KJ      -0.076400
     28 C18         22.6910    34.7230    15.9170 c3         1 0KJ      -0.090100
     29 S8          17.9880    32.6620    14.4900 sy         1 0KJ       1.193600
     30 O10         17.2280    31.6470    13.8020 o          1 0KJ      -0.539000
     31 O9          18.5430    33.7600    13.7360 o          1 0KJ      -0.539000
     32 C5          16.9610    33.3400    15.7670 ca         1 0KJ      -0.306500
     33 C6          15.9120    32.5650    16.2870 ca         1 0KJ      -0.030000
     34 C7          15.1510    33.0400    17.3370 ca         1 0KJ      -0.070000
     35 C4          17.2700    34.5960    16.2730 ca         1 0KJ       0.031000
     36 C3          16.4990    35.0640    17.3300 ca         1 0KJ      -0.210000
     37 S1          16.6130    36.5720    18.1830 ss         1 0KJ       0.039800
     38 C1          15.2700    36.0660    19.1730 cc         1 0KJ       0.406100
     39 N1          14.7670    34.9030    18.9180 nd         1 0KJ      -0.528100
     40 C2          15.4410    34.2980    17.8720 ca         1 0KJ       0.133400
     41 H1          23.9620    24.7410    11.1610 hn         1 0KJ       0.323500
     42 H2          23.2310    26.2650     9.2730 h1         1 0KJ       0.065700
     43 H3          20.5710    26.8570     9.9640 hc         1 0KJ       0.063700
     44 H4          21.0450    25.5790     8.8510 hc         1 0KJ       0.063700
     45 H5          20.1990    25.2790    11.7410 hc         1 0KJ       0.076700
     46 H6          20.0260    24.1160    10.4330 hc         1 0KJ       0.076700
     47 H7          23.9570    27.4390    11.3450 h1         1 0KJ       0.069700
     48 H8          22.6990    28.3080    10.4400 h1         1 0KJ       0.069700
     49 H9          20.6090    27.2950    13.9700 hn         1 0KJ       0.333500
     50 H10         19.4750    29.9530    13.3410 h1         1 0KJ       0.097700
     51 H11         17.2850    29.1200    14.1980 hc         1 0KJ       0.064700
     52 H12         17.9780    27.5130    14.3890 hc         1 0KJ       0.064700
     53 H13         18.0260    26.0090    12.5570 ha         1 0KJ       0.122000
     54 H14         17.5790    25.5050    10.1830 ha         1 0KJ       0.110000
     55 H15         16.9830    27.3320     8.6160 ha         1 0KJ       0.108000
     56 H16         16.8430    29.6630     9.4510 ha         1 0KJ       0.110000
     57 H17         17.3060    30.1580    11.8260 ha         1 0KJ       0.122000
     58 H18         20.8110    29.7150    15.4110 h1         1 0KJ       0.053700
     59 H19         19.9950    28.4470    17.0610 ho         1 0KJ       0.444000
     60 H20         19.1670    30.7560    16.9930 h1         1 0KJ       0.056700
     61 H21         17.8780    30.4060    15.8540 h1         1 0KJ       0.056700
     62 H22         20.1080    33.7800    15.4840 h1         1 0KJ       0.051700
     63 H23         20.0170    32.8310    16.9680 h1         1 0KJ       0.051700
     64 H24         21.8080    31.3550    16.1340 hc         1 0KJ       0.039700
     65 H25         23.0670    31.9390    14.0570 hc         1 0KJ       0.045367
     66 H26         21.4030    31.4700    13.7000 hc         1 0KJ       0.045367
     67 H27         21.8580    33.1690    13.6700 hc         1 0KJ       0.045367
     68 H28         22.3480    33.2890    17.4870 hc         1 0KJ       0.039200
     69 H29         23.6370    32.8500    16.3870 hc         1 0KJ       0.039200
     70 H30         23.3850    35.3110    16.5210 hc         1 0KJ       0.035367
     71 H31         23.0360    34.7680    14.8830 hc         1 0KJ       0.035367
     72 H32         21.7180    35.2160    15.9650 hc         1 0KJ       0.035367
     73 H33         15.6950    31.6000    15.8520 ha         1 0KJ       0.140000
     74 H34         14.3350    32.4560    17.7420 ha         1 0KJ       0.141000
     75 H35         18.0700    35.1860    15.8520 ha         1 0KJ       0.144000
     76 H36         14.9060    36.7230    19.9520 h5         1 0KJ       0.064800
@<TRIPOS>BOND
     1     1     2 2   
     2     2     3 1   
     3     2     6 1   
     4     3     4 1   
     5     3    41 1   
     6     4     5 1   
     7     4     7 1   
     8     4    42 1   
     9     5     6 1   
    10     5    43 1   
    11     5    44 1   
    12     6    45 1   
    13     6    46 1   
    14     7     8 1   
    15     7    47 1   
    16     7    48 1   
    17     8     9 1   
    18     9    10 2   
    19     9    11 1   
    20    11    12 1   
    21    11    49 1   
    22    12    13 1   
    23    12    20 1   
    24    12    50 1   
    25    13    14 1   
    26    13    51 1   
    27    13    52 1   
    28    14    15 ar  
    29    14    19 ar  
    30    15    16 ar  
    31    15    53 1   
    32    16    17 ar  
    33    16    54 1   
    34    17    18 ar  
    35    17    55 1   
    36    18    19 ar  
    37    18    56 1   
    38    19    57 1   
    39    20    21 1   
    40    20    22 1   
    41    20    58 1   
    42    21    59 1   
    43    22    23 1   
    44    22    60 1   
    45    22    61 1   
    46    23    24 1   
    47    23    29 1   
    48    24    25 1   
    49    24    62 1   
    50    24    63 1   
    51    25    26 1   
    52    25    27 1   
    53    25    64 1   
    54    26    65 1   
    55    26    66 1   
    56    26    67 1   
    57    27    28 1   
    58    27    68 1   
    59    27    69 1   
    60    28    70 1   
    61    28    71 1   
    62    28    72 1   
    63    29    30 2   
    64    29    31 2   
    65    29    32 1   
    66    32    33 ar  
    67    32    35 ar  
    68    33    34 ar  
    69    33    73 1   
    70    34    40 ar  
    71    34    74 1   
    72    35    36 ar  
    73    35    75 1   
    74    36    37 1   
    75    36    40 ar  
    76    37    38 1   
    77    38    39 2   
    78    38    76 1   
    79    39    40 1   
@<TRIPOS>SUBSTRUCTURE
     1 0KJ         1 TEMP              0 ****  ****    0 ROOT
