@<TRIPOS>MOLECULE
0KK
   35    37     1     0     0
SMALL
No Charge or Current Charge


@<TRIPOS>ATOM
      1 O1           0.5400     0.7850    -2.3010 o          1 0KK      -0.503000
      2 C1           0.3660     1.1110    -1.1300 c          1 0KK       0.570000
      3 C2           0.0890     0.2560     0.1440 c5         1 0KK       0.252800
      4 N1           0.0520     1.2310     1.2720 nu         1 0KK      -0.898400
      5 C3           0.1130     2.4700     0.7200 c2         1 0KK       0.676800
      6 N2           0.3670     2.4020    -0.6370 n          1 0KK      -0.391300
      7 N3          -0.2520     3.4830     1.3760 n2         1 0KK      -0.862100
      8 C4           0.5810     3.5650    -1.5230 c3         1 0KK       0.091300
      9 C5          -1.2850    -0.4460     0.1020 ca         1 0KK      -0.100800
     10 C6          -2.3110    -0.0480    -0.7900 ca         1 0KK      -0.084750
     11 C7          -3.5560    -0.7010    -0.7920 ca         1 0KK      -0.114750
     12 C8          -3.8040    -1.7540     0.1010 ca         1 0KK      -0.097500
     13 C9          -2.8050    -2.1500     1.0030 ca         1 0KK      -0.114750
     14 C10         -1.5600    -1.4980     1.0070 ca         1 0KK      -0.084750
     15 C11          1.2400    -0.7670     0.2840 ca         1 0KK      -0.100800
     16 C12          2.2940    -0.6000     1.2150 ca         1 0KK      -0.084750
     17 C13          3.3310    -1.5450     1.3070 ca         1 0KK      -0.114750
     18 C14          3.3380    -2.6700     0.4680 ca         1 0KK      -0.097500
     19 C15          2.3060    -2.8460    -0.4660 ca         1 0KK      -0.114750
     20 C16          1.2700    -1.9020    -0.5590 ca         1 0KK      -0.084750
     21 H1          -0.2300     4.2920     0.7440 hn         1 0KK       0.401400
     22 H3          -0.3830     3.9110    -1.9170 h1         1 0KK       0.052033
     23 H4           1.0580     4.3820    -0.9660 h1         1 0KK       0.052033
     24 H5           1.2340     3.2910    -2.3610 h1         1 0KK       0.052033
     25 H6          -2.1620     0.7730    -1.4870 ha         1 0KK       0.124250
     26 H7          -4.3320    -0.3860    -1.4860 ha         1 0KK       0.115750
     27 H8          -4.7680    -2.2570     0.0980 ha         1 0KK       0.114500
     28 H9          -2.9960    -2.9610     1.7020 ha         1 0KK       0.115750
     29 H10         -0.8030    -1.8150     1.7200 ha         1 0KK       0.124250
     30 H11          2.3230     0.2630     1.8760 ha         1 0KK       0.124250
     31 H12          4.1320    -1.4030     2.0290 ha         1 0KK       0.115750
     32 H13          4.1410    -3.4000     0.5400 ha         1 0KK       0.114500
     33 H14          2.3100    -3.7140    -1.1220 ha         1 0KK       0.115750
     34 H15          0.4820    -2.0550    -1.2940 ha         1 0KK       0.124250
     35 H16         -0.6710     1.1570     1.9790 hn         1 0KK       0.513000
@<TRIPOS>BOND
     1     1     2 2   
     2     2     3 1   
     3     2     6 1   
     4     3     4 1   
     5     3     9 1   
     6     3    15 1   
     7     4     5 1   
     8     4    35 1   
     9     5     6 1   
    10     5     7 2   
    11     6     8 1   
    12     7    21 1   
    13     8    22 1   
    14     8    23 1   
    15     8    24 1   
    16     9    10 ar  
    17     9    14 ar  
    18    10    11 ar  
    19    10    25 1   
    20    11    12 ar  
    21    11    26 1   
    22    12    13 ar  
    23    12    27 1   
    24    13    14 ar  
    25    13    28 1   
    26    14    29 1   
    27    15    16 ar  
    28    15    20 ar  
    29    16    17 ar  
    30    16    30 1   
    31    17    18 ar  
    32    17    31 1   
    33    18    19 ar  
    34    18    32 1   
    35    19    20 ar  
    36    19    33 1   
    37    20    34 1   
@<TRIPOS>SUBSTRUCTURE
     1 0KK         1 TEMP              0 ****  ****    0 ROOT
