@<TRIPOS>MOLECULE
0KK
   35    37     1     0     0
SMALL
abcg2


@<TRIPOS>ATOM
      1 O1           0.5560     0.6680    -2.2020 o          1 0KK      -0.503000
      2 C1           0.3480     1.0670    -1.0820 c          1 0KK       0.570000
      3 C2           0.0630     0.1990     0.1530 c5         1 0KK       0.252800
      4 N1           0.0380     1.2020     1.1930 nu         1 0KK      -0.898400
      5 C3           0.0460     2.4720     0.6930 c2         1 0KK       0.676800
      6 N2           0.3270     2.3590    -0.6720 n          1 0KK      -0.391300
      7 N3          -0.1490     3.5220     1.3730 n2         1 0KK      -0.862100
      8 C4           0.5410     3.5030    -1.5280 c3         1 0KK       0.091300
      9 C5          -1.2900    -0.4970     0.0590 ca         1 0KK      -0.100800
     10 C6          -2.2960    -0.0540    -0.7940 ca         1 0KK      -0.084750
     11 C7          -3.5470    -0.6570    -0.7810 ca         1 0KK      -0.114750
     12 C8          -3.8130    -1.7030     0.0900 ca         1 0KK      -0.097500
     13 C9          -2.8160    -2.1450     0.9500 ca         1 0KK      -0.114750
     14 C10         -1.5650    -1.5480     0.9320 ca         1 0KK      -0.084750
     15 C11          1.2120    -0.7870     0.3010 ca         1 0KK      -0.100800
     16 C12          2.2240    -0.5820     1.2300 ca         1 0KK      -0.084750
     17 C13          3.2860    -1.4740     1.3220 ca         1 0KK      -0.114750
     18 C14          3.3480    -2.5760     0.4830 ca         1 0KK      -0.097500
     19 C15          2.3400    -2.7830    -0.4510 ca         1 0KK      -0.114750
     20 C16          1.2790    -1.8960    -0.5410 ca         1 0KK      -0.084750
     21 H1          -0.0950     4.3620     0.8110 hn         1 0KK       0.401400
     22 H3          -0.3850     4.0580    -1.6740 h1         1 0KK       0.052033
     23 H4           1.2900     4.1630    -1.0930 h1         1 0KK       0.052033
     24 H5           0.9000     3.1580    -2.4920 h1         1 0KK       0.052033
     25 H6          -2.1300     0.7620    -1.4850 ha         1 0KK       0.124250
     26 H7          -4.3140    -0.3040    -1.4580 ha         1 0KK       0.115750
     27 H8          -4.7880    -2.1720     0.0980 ha         1 0KK       0.114500
     28 H9          -3.0090    -2.9600     1.6360 ha         1 0KK       0.115750
     29 H10         -0.7970    -1.9110     1.6040 ha         1 0KK       0.124250
     30 H11          2.1840     0.2750     1.8890 ha         1 0KK       0.124250
     31 H12          4.0650    -1.3040     2.0540 ha         1 0KK       0.115750
     32 H13          4.1740    -3.2710     0.5550 ha         1 0KK       0.114500
     33 H14          2.3770    -3.6420    -1.1090 ha         1 0KK       0.115750
     34 H15          0.4960    -2.0770    -1.2660 ha         1 0KK       0.124250
     35 H16         -0.4520     1.0270     2.0570 hn         1 0KK       0.513000
@<TRIPOS>BOND
     1     1     2 2   
     2     2     3 1   
     3     2     6 1   
     4     3     4 1   
     5     3     9 1   
     6     3    15 1   
     7     4     5 1   
     8     4    35 1   
     9     5     6 1   
    10     5     7 2   
    11     6     8 1   
    12     7    21 1   
    13     8    22 1   
    14     8    23 1   
    15     8    24 1   
    16     9    10 ar  
    17     9    14 ar  
    18    10    11 ar  
    19    10    25 1   
    20    11    12 ar  
    21    11    26 1   
    22    12    13 ar  
    23    12    27 1   
    24    13    14 ar  
    25    13    28 1   
    26    14    29 1   
    27    15    16 ar  
    28    15    20 ar  
    29    16    17 ar  
    30    16    30 1   
    31    17    18 ar  
    32    17    31 1   
    33    18    19 ar  
    34    18    32 1   
    35    19    20 ar  
    36    19    33 1   
    37    20    34 1   
@<TRIPOS>SUBSTRUCTURE
     1 0KK         1 TEMP              0 ****  ****    0 ROOT
