@<TRIPOS>MOLECULE
0KM
   49    52     1     0     0
SMALL
abcg2


@<TRIPOS>ATOM
      1 O1          -2.8590     0.8300    -2.1330 o          1 0KM      -0.503000
      2 C1          -2.6150     1.0400    -0.9690 c          1 0KM       0.569000
      3 C2          -1.9900     0.0460     0.0210 c5         1 0KM       0.254800
      4 N1          -1.8170     0.8880     1.1810 nu         1 0KM      -0.903400
      5 C3          -2.4300     2.0990     1.0460 c2         1 0KM       0.678800
      6 N2          -2.8320     2.1930    -0.2900 n          1 0KM      -0.391300
      7 N3          -2.5730     2.9500     1.9730 n2         1 0KM      -0.863100
      8 C4          -3.4100     3.3910    -0.8510 c3         1 0KM       0.091300
      9 C5          -2.9350    -1.1070     0.3410 ca         1 0KM      -0.107300
     10 C6          -2.4230    -2.2320     0.9850 ca         1 0KM      -0.089000
     11 C7          -3.2620    -3.2610     1.3850 ca         1 0KM      -0.112000
     12 C8          -4.6270    -3.1820     1.1430 ca         1 0KM      -0.097000
     13 C9          -5.1440    -2.0660     0.5030 ca         1 0KM      -0.112000
     14 C10         -4.3040    -1.0320     0.1070 ca         1 0KM      -0.089000
     15 C11         -0.6740    -0.4340    -0.5740 ca         1 0KM      -0.096300
     16 C12         -0.6850    -1.3870    -1.5910 ca         1 0KM      -0.073000
     17 C13          0.5070    -1.8040    -2.1580 ca         1 0KM      -0.117000
     18 C14          1.7160    -1.2820    -1.7210 ca         1 0KM      -0.086000
     19 C15          1.7440    -0.3270    -0.7070 cp         1 0KM      -0.044000
     20 C16          0.5350     0.0900    -0.1460 ca         1 0KM      -0.074000
     21 C17          5.4620     1.3020     0.6470 ca         1 0KM      -0.195000
     22 C18          4.1480    -0.5690    -0.1180 ca         1 0KM      -0.138000
     23 C19          3.0240     0.2400    -0.2330 cp         1 0KM       0.001000
     24 C20          3.1240     1.5940     0.1020 ca         1 0KM      -0.136000
     25 C21          4.3340     2.1070     0.5330 ca         1 0KM      -0.074000
     26 C22          5.3660    -0.0490     0.3200 ca         1 0KM       0.139100
     27 O2           6.3860    -0.9240     0.4010 os         1 0KM      -0.344100
     28 C23          7.6410    -0.4600     0.8560 c3         1 0KM       0.149900
     29 H1          -3.0500     3.7870     1.6600 hn         1 0KM       0.401400
     30 H3          -4.3460     3.6360    -0.3510 h1         1 0KM       0.052033
     31 H4          -2.7210     4.2280    -0.7540 h1         1 0KM       0.052033
     32 H5          -3.6120     3.2240    -1.9040 h1         1 0KM       0.052033
     33 H6          -1.3600    -2.3120     1.1750 ha         1 0KM       0.121000
     34 H7          -2.8460    -4.1270     1.8830 ha         1 0KM       0.117000
     35 H8          -5.2830    -3.9870     1.4500 ha         1 0KM       0.116000
     36 H9          -6.2060    -1.9940     0.3070 ha         1 0KM       0.117000
     37 H10         -4.7440    -0.1740    -0.3840 ha         1 0KM       0.121000
     38 H11         -1.6190    -1.8110    -1.9350 ha         1 0KM       0.128000
     39 H12          0.4960    -2.5410    -2.9510 ha         1 0KM       0.117000
     40 H13          2.6380    -1.6090    -2.1850 ha         1 0KM       0.119000
     41 H14          0.5410     0.8190     0.6540 ha         1 0KM       0.131000
     42 H16          4.0860    -1.6260    -0.3480 ha         1 0KM       0.127000
     43 H17          2.2680     2.2480     0.0030 ha         1 0KM       0.120000
     44 H18          4.4130     3.1580     0.7820 ha         1 0KM       0.112000
     45 H19          8.3070    -1.3190     0.8550 h1         1 0KM       0.040367
     46 H20          8.0570     0.3070     0.1980 h1         1 0KM       0.040367
     47 H21          7.5840    -0.0600     1.8720 h1         1 0KM       0.040367
     48 H22         -1.7280     0.4850     2.1000 hn         1 0KM       0.516000
     49 H15          6.3910     1.7390     0.9870 ha         1 0KM       0.117000
@<TRIPOS>BOND
     1     1     2 2   
     2     2     3 1   
     3     2     6 1   
     4     3     4 1   
     5     3     9 1   
     6     3    15 1   
     7     4     5 1   
     8     4    48 1   
     9     5     6 1   
    10     5     7 2   
    11     6     8 1   
    12     7    29 1   
    13     8    30 1   
    14     8    31 1   
    15     8    32 1   
    16     9    10 ar  
    17     9    14 ar  
    18    10    11 ar  
    19    10    33 1   
    20    11    12 ar  
    21    11    34 1   
    22    12    13 ar  
    23    12    35 1   
    24    13    14 ar  
    25    13    36 1   
    26    14    37 1   
    27    15    16 ar  
    28    15    20 ar  
    29    16    17 ar  
    30    16    38 1   
    31    17    18 ar  
    32    17    39 1   
    33    18    19 ar  
    34    18    40 1   
    35    19    20 ar  
    36    19    23 1   
    37    20    41 1   
    38    21    25 ar  
    39    21    26 ar  
    40    21    49 1   
    41    22    23 ar  
    42    22    26 ar  
    43    22    42 1   
    44    23    24 ar  
    45    24    25 ar  
    46    24    43 1   
    47    25    44 1   
    48    26    27 1   
    49    27    28 1   
    50    28    45 1   
    51    28    46 1   
    52    28    47 1   
@<TRIPOS>SUBSTRUCTURE
     1 0KM         1 TEMP              0 ****  ****    0 ROOT
