@<TRIPOS>MOLECULE
0KM
   49    52     1     0     0
SMALL
No Charge or Current Charge


@<TRIPOS>ATOM
      1 O1          -2.9800     0.9260    -2.1980 o          1 0KM      -0.503000
      2 C1          -2.6850     1.0880    -1.0180 c          1 0KM       0.569000
      3 C2          -2.0470     0.1180     0.0240 c5         1 0KM       0.254800
      4 N1          -1.8650     0.9330     1.2600 nu         1 0KM      -0.903400
      5 C3          -2.4660     2.1290     1.0320 c2         1 0KM       0.678800
      6 N2          -2.8640     2.2470    -0.2860 n          1 0KM      -0.391300
      7 N3          -2.7870     2.8770     1.9940 n2         1 0KM      -0.863100
      8 C4          -3.4680     3.4530    -0.8890 c3         1 0KM       0.091300
      9 C5          -2.9770    -1.0580     0.3900 ca         1 0KM      -0.107300
     10 C6          -2.4480    -2.1800     1.0700 ca         1 0KM      -0.089000
     11 C7          -3.2690    -3.2630     1.4290 ca         1 0KM      -0.112000
     12 C8          -4.6370    -3.2400     1.1230 ca         1 0KM      -0.097000
     13 C9          -5.1840    -2.1280     0.4640 ca         1 0KM      -0.112000
     14 C10         -4.3640    -1.0440     0.1040 ca         1 0KM      -0.089000
     15 C11         -0.7070    -0.3830    -0.5600 ca         1 0KM      -0.096300
     16 C12         -0.7160    -1.3720    -1.5680 ca         1 0KM      -0.073000
     17 C13          0.4830    -1.8430    -2.1250 ca         1 0KM      -0.117000
     18 C14          1.7120    -1.3280    -1.6900 ca         1 0KM      -0.086000
     19 C15          1.7670    -0.3270    -0.6900 cp         1 0KM      -0.044000
     20 C16          0.5430     0.1320    -0.1400 ca         1 0KM      -0.074000
     21 C17          5.5690     1.2890     0.6420 ca         1 0KM      -0.195000
     22 C18          4.2300    -0.5890    -0.1320 ca         1 0KM      -0.138000
     23 C19          3.0790     0.2320    -0.2300 cp         1 0KM       0.001000
     24 C20          3.2120     1.5980     0.1210 ca         1 0KM      -0.136000
     25 C21          4.4420     2.1210     0.5520 ca         1 0KM      -0.074000
     26 C22          5.4640    -0.0750     0.2980 ca         1 0KM       0.139100
     27 O2           6.5350    -0.9430     0.3690 os         1 0KM      -0.344100
     28 C23          7.8410    -0.5180     0.7980 c3         1 0KM       0.149900
     29 H1          -3.3220     3.6670     1.6130 hn         1 0KM       0.401400
     30 H3          -4.5580     3.4200    -0.7660 h1         1 0KM       0.052033
     31 H4          -3.0770     4.3550    -0.4020 h1         1 0KM       0.052033
     32 H5          -3.2290     3.5050    -1.9580 h1         1 0KM       0.052033
     33 H6          -1.3910    -2.2140     1.3240 ha         1 0KM       0.121000
     34 H7          -2.8420    -4.1190     1.9460 ha         1 0KM       0.117000
     35 H8          -5.2740    -4.0770     1.4010 ha         1 0KM       0.116000
     36 H9          -6.2470    -2.1040     0.2340 ha         1 0KM       0.117000
     37 H10         -4.8270    -0.1950    -0.3930 ha         1 0KM       0.121000
     38 H11         -1.6600    -1.7810    -1.9240 ha         1 0KM       0.128000
     39 H12          0.4570    -2.6060    -2.9000 ha         1 0KM       0.117000
     40 H13          2.6280    -1.6960    -2.1450 ha         1 0KM       0.119000
     41 H14          0.5800     0.8940     0.6330 ha         1 0KM       0.131000
     42 H16          4.1650    -1.6440    -0.3800 ha         1 0KM       0.127000
     43 H17          2.3560     2.2640     0.0460 ha         1 0KM       0.120000
     44 H18          4.5210     3.1750     0.8130 ha         1 0KM       0.112000
     45 H19          8.5410    -1.3630     0.7810 h1         1 0KM       0.040367
     46 H20          8.2340     0.2630     0.1360 h1         1 0KM       0.040367
     47 H21          7.8060    -0.1270     1.8230 h1         1 0KM       0.040367
     48 H22         -2.1140     0.5410     2.1620 hn         1 0KM       0.516000
     49 H15          6.5090     1.7180     0.9780 ha         1 0KM       0.117000
@<TRIPOS>BOND
     1     1     2 2   
     2     2     3 1   
     3     2     6 1   
     4     3     4 1   
     5     3     9 1   
     6     3    15 1   
     7     4     5 1   
     8     4    48 1   
     9     5     6 1   
    10     5     7 2   
    11     6     8 1   
    12     7    29 1   
    13     8    30 1   
    14     8    31 1   
    15     8    32 1   
    16     9    10 ar  
    17     9    14 ar  
    18    10    11 ar  
    19    10    33 1   
    20    11    12 ar  
    21    11    34 1   
    22    12    13 ar  
    23    12    35 1   
    24    13    14 ar  
    25    13    36 1   
    26    14    37 1   
    27    15    16 ar  
    28    15    20 ar  
    29    16    17 ar  
    30    16    38 1   
    31    17    18 ar  
    32    17    39 1   
    33    18    19 ar  
    34    18    40 1   
    35    19    20 ar  
    36    19    23 1   
    37    20    41 1   
    38    21    25 ar  
    39    21    26 ar  
    40    21    49 1   
    41    22    23 ar  
    42    22    26 ar  
    43    22    42 1   
    44    23    24 ar  
    45    24    25 ar  
    46    24    43 1   
    47    25    44 1   
    48    26    27 1   
    49    27    28 1   
    50    28    45 1   
    51    28    46 1   
    52    28    47 1   
@<TRIPOS>SUBSTRUCTURE
     1 0KM         1 TEMP              0 ****  ****    0 ROOT
