@<TRIPOS>MOLECULE
0KN
   83    87     1     0     0
SMALL
bcc


@<TRIPOS>ATOM
      1 C29          3.8850    -4.1170    -2.1210 cy         1 0KN      -0.093900
      2 C30          2.9620    -5.0100    -1.2690 cy         1 0KN      -0.092400
      3 C31          3.3330    -4.1540    -0.0430 cy         1 0KN      -0.093900
      4 C18          3.7920    -3.0520    -1.0220 cy         1 0KN       0.149800
      5 C19          2.7320    -2.0020    -1.2890 c6         1 0KN      -0.133400
      6 O17          5.0470    -2.4490    -0.7340 os         1 0KN      -0.420100
      7 C16          5.0750    -1.3130    -0.0150 ca         1 0KN       0.657600
      8 N23          6.2930    -0.9190     0.3040 nb         1 0KN      -0.700000
      9 C22          6.4330     0.2040     1.0000 ca         1 0KN       0.442200
     10 C21          5.3760     0.9990     1.4170 ca         1 0KN      -0.236600
     11 C24          5.5990     2.2750     2.1740 c3         1 0KN      -0.010100
     12 C25          5.6820     3.5570     1.3130 c3         1 0KN      -0.044000
     13 C27          4.3920     3.7650     0.5200 c3         1 0KN      -0.084433
     14 C28          5.8830     4.7400     2.2610 c3         1 0KN      -0.084433
     15 C26          6.8610     3.4810     0.3440 c3         1 0KN      -0.084433
     16 C20          4.1030     0.5530     1.0690 ca         1 0KN      -0.040000
     17 C15          3.9180    -0.6110     0.3450 ca         1 0KN      -0.276600
     18 C6           2.5460    -1.0990    -0.0730 c6         1 0KN       0.266800
     19 N5           1.6430     0.0130    -0.2630 n7         1 0KN      -0.856200
     20 C4           0.2790    -0.0720     0.2030 c3         1 0KN       0.164800
     21 C3          -0.7060    -0.8990    -0.6290 c3         1 0KN       0.089100
     22 O14         -0.4150    -2.2800    -0.5910 oh         1 0KN      -0.591800
     23 C2          -2.1660    -0.6700    -0.1840 c3         1 0KN       0.101700
     24 N1          -2.5340     0.7340    -0.1330 ns         1 0KN      -0.576900
     25 C35         -2.6020     1.5670    -1.1840 c          1 0KN       0.669100
     26 O36         -2.2800     1.2640    -2.3210 o          1 0KN      -0.573100
     27 C37         -3.0720     2.9740    -0.8210 c3         1 0KN       0.066100
     28 C38         -1.9140     3.7550    -0.1990 c3         1 0KN      -0.123100
     29 O39         -3.5550     3.5560    -1.9980 os         1 0KN      -0.374600
     30 C40         -4.3520     4.6960    -1.7850 c3         1 0KN       0.119700
     31 C7          -3.1640    -1.4960    -1.0170 c3         1 0KN      -0.044100
     32 C8          -4.5850    -1.2380    -0.6030 ca         1 0KN      -0.081300
     33 C9          -5.0810    -1.8360     0.5680 ca         1 0KN      -0.122000
     34 C10         -6.3640    -1.5300     0.9450 ca         1 0KN       0.050100
     35 O32         -7.0690    -1.9950     2.0070 os         1 0KN      -0.321900
     36 C33         -8.2610    -1.2220     2.0530 c5         1 0KN       0.326200
     37 O34         -8.3820    -0.5720     0.7960 os         1 0KN      -0.319900
     38 C11         -7.1610    -0.6660     0.2090 ca         1 0KN       0.048100
     39 C12         -6.7050    -0.0740    -0.9410 ca         1 0KN      -0.113000
     40 C13         -5.3950    -0.3780    -1.3330 ca         1 0KN      -0.122000
     41 H1           4.8920    -4.5340    -2.1810 hc         1 0KN       0.063200
     42 H2           3.5590    -3.8270    -3.1210 hc         1 0KN       0.063200
     43 H3           1.9120    -4.9060    -1.5420 hc         1 0KN       0.055200
     44 H4           3.2060    -6.0700    -1.2240 hc         1 0KN       0.055200
     45 H5           2.5480    -3.9120     0.6750 hc         1 0KN       0.063200
     46 H6           4.1830    -4.5780     0.4950 hc         1 0KN       0.063200
     47 H7           3.0340    -1.4000    -2.1540 hc         1 0KN       0.070200
     48 H8           1.7890    -2.4840    -1.5440 hc         1 0KN       0.070200
     49 H9           7.4530     0.4900     1.2410 h4         1 0KN       0.019100
     50 H10          4.7910     2.4070     2.9010 hc         1 0KN       0.044200
     51 H11          6.5230     2.1930     2.7550 hc         1 0KN       0.044200
     52 H12          3.5150     3.7790     1.1720 hc         1 0KN       0.033700
     53 H13          4.4210     4.7180    -0.0130 hc         1 0KN       0.033700
     54 H14          4.2410     2.9810    -0.2240 hc         1 0KN       0.033700
     55 H15          6.8030     4.6340     2.8420 hc         1 0KN       0.033700
     56 H16          5.9490     5.6780     1.7060 hc         1 0KN       0.033700
     57 H17          5.0540     4.8290     2.9660 hc         1 0KN       0.033700
     58 H18          6.7440     2.6640    -0.3690 hc         1 0KN       0.033700
     59 H19          6.9440     4.4070    -0.2290 hc         1 0KN       0.033700
     60 H20          7.8050     3.3330     0.8730 hc         1 0KN       0.033700
     61 H21          3.2270     1.1230     1.3530 ha         1 0KN       0.146000
     62 H22          2.1380    -1.7000     0.7470 h1         1 0KN       0.054700
     63 H23          1.7050     0.3930    -1.1980 hn         1 0KN       0.384800
     64 H25          0.2900    -0.4510     1.2310 h1         1 0KN       0.052200
     65 H26         -0.1020     0.9500     0.2710 h1         1 0KN       0.052200
     66 H27         -0.6080    -0.6080    -1.6780 h1         1 0KN       0.102700
     67 H28         -0.4120    -2.5730     0.3270 ho         1 0KN       0.397000
     68 H29         -2.2420    -1.0070     0.8550 h1         1 0KN       0.039700
     69 H30         -2.8850     1.0670     0.7500 hn         1 0KN       0.314500
     70 H31         -3.8810     2.8940    -0.0770 h1         1 0KN       0.036700
     71 H32         -1.0660     3.8050    -0.8820 hc         1 0KN       0.048367
     72 H33         -2.2140     4.7720     0.0530 hc         1 0KN       0.048367
     73 H34         -1.5810     3.2810     0.7240 hc         1 0KN       0.048367
     74 H35         -4.7590     4.9960    -2.7490 h1         1 0KN       0.032033
     75 H36         -5.1890     4.4870    -1.1070 h1         1 0KN       0.032033
     76 H37         -3.7890     5.5400    -1.3750 h1         1 0KN       0.032033
     77 H38         -3.0350    -1.2680    -2.0760 hc         1 0KN       0.073700
     78 H39         -2.9260    -2.5520    -0.8870 hc         1 0KN       0.073700
     79 H40         -4.4710    -2.5180     1.1480 ha         1 0KN       0.147000
     80 H41         -9.1180    -1.8750     2.2150 h2         1 0KN       0.064200
     81 H42         -8.1890    -0.4770     2.8530 h2         1 0KN       0.064200
     82 H43         -7.3240     0.5960    -1.5220 ha         1 0KN       0.154000
     83 H44         -5.0060     0.0780    -2.2340 ha         1 0KN       0.153000
@<TRIPOS>BOND
     1     1     2 1   
     2     1     4 1   
     3     1    41 1   
     4     1    42 1   
     5     2     3 1   
     6     2    43 1   
     7     2    44 1   
     8     3     4 1   
     9     3    45 1   
    10     3    46 1   
    11     4     5 1   
    12     4     6 1   
    13     5    18 1   
    14     5    47 1   
    15     5    48 1   
    16     6     7 1   
    17     7     8 ar  
    18     7    17 ar  
    19     8     9 ar  
    20     9    10 ar  
    21     9    49 1   
    22    10    11 1   
    23    10    16 ar  
    24    11    12 1   
    25    11    50 1   
    26    11    51 1   
    27    12    13 1   
    28    12    14 1   
    29    12    15 1   
    30    13    52 1   
    31    13    53 1   
    32    13    54 1   
    33    14    55 1   
    34    14    56 1   
    35    14    57 1   
    36    15    58 1   
    37    15    59 1   
    38    15    60 1   
    39    16    17 ar  
    40    16    61 1   
    41    17    18 1   
    42    18    19 1   
    43    18    62 1   
    44    19    20 1   
    45    19    63 1   
    46    20    21 1   
    47    20    64 1   
    48    20    65 1   
    49    21    22 1   
    50    21    23 1   
    51    21    66 1   
    52    22    67 1   
    53    23    24 1   
    54    23    31 1   
    55    23    68 1   
    56    24    25 1   
    57    24    69 1   
    58    25    26 2   
    59    25    27 1   
    60    27    28 1   
    61    27    29 1   
    62    27    70 1   
    63    28    71 1   
    64    28    72 1   
    65    28    73 1   
    66    29    30 1   
    67    30    74 1   
    68    30    75 1   
    69    30    76 1   
    70    31    32 1   
    71    31    77 1   
    72    31    78 1   
    73    32    33 ar  
    74    32    40 ar  
    75    33    34 ar  
    76    33    79 1   
    77    34    35 1   
    78    34    38 ar  
    79    35    36 1   
    80    36    37 1   
    81    36    80 1   
    82    36    81 1   
    83    37    38 1   
    84    38    39 ar  
    85    39    40 ar  
    86    39    82 1   
    87    40    83 1   
@<TRIPOS>SUBSTRUCTURE
     1 0KN         1 TEMP              0 ****  ****    0 ROOT
