@<TRIPOS>MOLECULE
0KN
   83    87     1     0     0
SMALL
No Charge or Current Charge


@<TRIPOS>ATOM
      1 C29          3.6200    -3.8270    -2.7150 cy         1 0KN      -0.093900
      2 C30          2.8270    -4.7570    -1.7330 cy         1 0KN      -0.092400
      3 C31          3.5830    -4.0210    -0.5750 cy         1 0KN      -0.093900
      4 C18          3.7090    -2.7920    -1.5430 cy         1 0KN       0.173000
      5 C19          2.5290    -1.7900    -1.4850 c6         1 0KN      -0.133400
      6 O17          4.9380    -2.0750    -1.4630 os         1 0KN      -0.443300
      7 C16          5.1160    -1.0920    -0.5200 ca         1 0KN       0.592300
      8 N23          6.3870    -0.7200    -0.2760 nb         1 0KN      -0.700000
      9 C22          6.5990     0.2430     0.6440 ca         1 0KN       0.376900
     10 C21          5.5640     0.8750     1.3580 ca         1 0KN      -0.171300
     11 C24          5.8750     1.9450     2.4040 c3         1 0KN      -0.010100
     12 C25          5.9030     3.4110     1.8640 c3         1 0KN      -0.044000
     13 C27          4.5240     3.8070     1.2730 c3         1 0KN      -0.084433
     14 C28          6.2330     4.3670     3.0420 c3         1 0KN      -0.084433
     15 C26          6.9940     3.5730     0.7710 c3         1 0KN      -0.084433
     16 C20          4.2410     0.4800     1.1040 ca         1 0KN      -0.022000
     17 C15          4.0050    -0.5090     0.1320 ca         1 0KN      -0.211300
     18 C6           2.5840    -0.9800    -0.1730 c6         1 0KN       0.266800
     19 N5           1.6680     0.1750    -0.2440 n7         1 0KN      -0.911400
     20 C4           0.3420     0.1180     0.4340 c3         1 0KN       0.164800
     21 C3          -0.6540    -0.9350    -0.1620 c3         1 0KN       0.112300
     22 O14         -0.3050    -2.2640     0.2900 oh         1 0KN      -0.654000
     23 C2          -2.1480    -0.6430     0.2060 c3         1 0KN       0.101700
     24 N1          -2.5710     0.7330    -0.1160 ns         1 0KN      -0.509900
     25 C35         -2.6000     1.3040    -1.3770 c          1 0KN       0.602100
     26 O36         -2.2360     0.6940    -2.3770 o          1 0KN      -0.573100
     27 C37         -3.1970     2.7430    -1.4160 c3         1 0KN       0.089300
     28 C38         -2.1160     3.7950    -1.0580 c3         1 0KN      -0.123100
     29 O39         -3.7370     3.0600    -2.7280 os         1 0KN      -0.421000
     30 C40         -4.5630     4.2380    -2.8130 c3         1 0KN       0.142900
     31 C7          -3.1380    -1.6790    -0.3970 c3         1 0KN      -0.044100
     32 C8          -4.6010    -1.3320    -0.1340 ca         1 0KN      -0.081300
     33 C9          -5.1420    -1.4850     1.1640 ca         1 0KN      -0.104000
     34 C10         -6.4840    -1.1420     1.3690 ca         1 0KN       0.050100
     35 O32         -7.1510    -1.2180     2.5480 os         1 0KN      -0.345100
     36 C33         -8.5130    -0.7990     2.1770 c5         1 0KN       0.372600
     37 O34         -8.5300    -0.3830     0.7650 os         1 0KN      -0.343100
     38 C11         -7.2670    -0.6670     0.3550 ca         1 0KN       0.048100
     39 C12         -6.7690    -0.4990    -0.9410 ca         1 0KN      -0.095000
     40 C13         -5.4200    -0.8400    -1.1830 ca         1 0KN      -0.104000
     41 H1           4.5900    -4.2310    -3.0280 hc         1 0KN       0.063200
     42 H2           3.0780    -3.4980    -3.6080 hc         1 0KN       0.063200
     43 H3           1.7410    -4.6100    -1.7370 hc         1 0KN       0.055200
     44 H4           3.0290    -5.8300    -1.8270 hc         1 0KN       0.055200
     45 H5           3.0100    -3.8650     0.3450 hc         1 0KN       0.063200
     46 H6           4.5440    -4.4780    -0.3090 hc         1 0KN       0.063200
     47 H7           2.6040    -1.1110    -2.3450 hc         1 0KN       0.070200
     48 H8           1.5630    -2.2970    -1.5820 hc         1 0KN       0.070200
     49 H9           7.6390     0.5160     0.8190 h4         1 0KN       0.019100
     50 H10          5.1390     1.8800     3.2160 hc         1 0KN       0.044200
     51 H11          6.8420     1.7210     2.8730 hc         1 0KN       0.044200
     52 H12          3.7250     3.6660     2.0120 hc         1 0KN       0.033700
     53 H13          4.5170     4.8600     0.9670 hc         1 0KN       0.033700
     54 H14          4.2800     3.2050     0.3900 hc         1 0KN       0.033700
     55 H15          7.2090     4.1270     3.4810 hc         1 0KN       0.033700
     56 H16          6.2630     5.4110     2.7060 hc         1 0KN       0.033700
     57 H17          5.4780     4.2900     3.8340 hc         1 0KN       0.033700
     58 H18          6.7630     2.9700    -0.1150 hc         1 0KN       0.033700
     59 H19          7.0700     4.6180     0.4480 hc         1 0KN       0.033700
     60 H20          7.9760     3.2640     1.1480 hc         1 0KN       0.033700
     61 H21          3.4140     0.9360     1.6450 ha         1 0KN       0.128000
     62 H22          2.2840    -1.6300     0.6640 h1         1 0KN       0.054700
     63 H23          1.5510     0.4540    -1.2250 hn         1 0KN       0.440000
     64 H25          0.4700    -0.0820     1.5070 h1         1 0KN       0.052200
     65 H26         -0.1140     1.1140     0.3640 h1         1 0KN       0.052200
     66 H27         -0.5710    -0.8840    -1.2560 h1         1 0KN       0.102700
     67 H28         -0.3050    -2.2520     1.2710 ho         1 0KN       0.436000
     68 H29         -2.2290    -0.7260     1.2980 h1         1 0KN       0.039700
     69 H30         -2.9260     1.3050     0.6410 hn         1 0KN       0.314500
     70 H31         -3.9940     2.7790    -0.6610 h1         1 0KN       0.036700
     71 H32         -1.3580     3.8570    -1.8480 hc         1 0KN       0.048367
     72 H33         -2.5550     4.7890    -0.9130 hc         1 0KN       0.048367
     73 H34         -1.6110     3.5220    -0.1240 hc         1 0KN       0.048367
     74 H35         -5.0010     4.3200    -3.8150 h1         1 0KN       0.032033
     75 H36         -5.3840     4.1930    -2.0860 h1         1 0KN       0.032033
     76 H37         -3.9800     5.1490    -2.6280 h1         1 0KN       0.032033
     77 H38         -2.9580    -1.7660    -1.4750 hc         1 0KN       0.073700
     78 H39         -2.9220    -2.6710     0.0190 hc         1 0KN       0.073700
     79 H40         -4.5360    -1.8550     1.9870 ha         1 0KN       0.129000
     80 H41         -9.1970    -1.6460     2.3090 h2         1 0KN       0.064200
     81 H42         -8.8260     0.0390     2.8120 h2         1 0KN       0.064200
     82 H43         -7.4030    -0.1160    -1.7370 ha         1 0KN       0.136000
     83 H44         -5.0090    -0.7140    -2.1820 ha         1 0KN       0.135000
@<TRIPOS>BOND
     1     1     2 1   
     2     1     4 1   
     3     1    41 1   
     4     1    42 1   
     5     2     3 1   
     6     2    43 1   
     7     2    44 1   
     8     3     4 1   
     9     3    45 1   
    10     3    46 1   
    11     4     5 1   
    12     4     6 1   
    13     5    18 1   
    14     5    47 1   
    15     5    48 1   
    16     6     7 1   
    17     7     8 ar  
    18     7    17 ar  
    19     8     9 ar  
    20     9    10 ar  
    21     9    49 1   
    22    10    11 1   
    23    10    16 ar  
    24    11    12 1   
    25    11    50 1   
    26    11    51 1   
    27    12    13 1   
    28    12    14 1   
    29    12    15 1   
    30    13    52 1   
    31    13    53 1   
    32    13    54 1   
    33    14    55 1   
    34    14    56 1   
    35    14    57 1   
    36    15    58 1   
    37    15    59 1   
    38    15    60 1   
    39    16    17 ar  
    40    16    61 1   
    41    17    18 1   
    42    18    19 1   
    43    18    62 1   
    44    19    20 1   
    45    19    63 1   
    46    20    21 1   
    47    20    64 1   
    48    20    65 1   
    49    21    22 1   
    50    21    23 1   
    51    21    66 1   
    52    22    67 1   
    53    23    24 1   
    54    23    31 1   
    55    23    68 1   
    56    24    25 1   
    57    24    69 1   
    58    25    26 2   
    59    25    27 1   
    60    27    28 1   
    61    27    29 1   
    62    27    70 1   
    63    28    71 1   
    64    28    72 1   
    65    28    73 1   
    66    29    30 1   
    67    30    74 1   
    68    30    75 1   
    69    30    76 1   
    70    31    32 1   
    71    31    77 1   
    72    31    78 1   
    73    32    33 ar  
    74    32    40 ar  
    75    33    34 ar  
    76    33    79 1   
    77    34    35 1   
    78    34    38 ar  
    79    35    36 1   
    80    36    37 1   
    81    36    80 1   
    82    36    81 1   
    83    37    38 1   
    84    38    39 ar  
    85    39    40 ar  
    86    39    82 1   
    87    40    83 1   
@<TRIPOS>SUBSTRUCTURE
     1 0KN         1 TEMP              0 ****  ****    0 ROOT
