@<TRIPOS>MOLECULE
0KO
   61    64     1     0     0
SMALL
No Charge or Current Charge


@<TRIPOS>ATOM
      1 C31         -6.6280     6.0320    -1.4180 c3         1 0KO       0.159900
      2 O30         -6.6540     5.0420    -0.3700 os         1 0KO      -0.463300
      3 C27         -5.7240     4.0300    -0.3210 ca         1 0KO       0.558300
      4 C28         -5.8190     3.1050     0.7330 ca         1 0KO      -0.159000
      5 C29         -4.8930     2.0500     0.8290 ca         1 0KO      -0.105000
      6 N26         -4.7690     3.9470    -1.2710 nb         1 0KO      -0.739000
      7 C25         -3.8690     2.9290    -1.1760 ca         1 0KO       0.362900
      8 C24         -3.8760     1.9470    -0.1370 ca         1 0KO       0.225000
      9 N7          -2.9670     0.8700    -0.0260 nu         1 0KO      -0.928900
     10 C2          -1.7040     0.6000    -0.5020 ca         1 0KO       0.668900
     11 N1          -1.1300     1.6540    -1.0820 nb         1 0KO      -0.766000
     12 C6           0.1060     1.5020    -1.5940 ca         1 0KO       0.422900
     13 C5           0.8090     0.2940    -1.5440 ca         1 0KO      -0.225300
     14 C9           2.1980     0.1860    -2.1460 c3         1 0KO       0.238100
     15 N10          3.1860    -0.3610    -1.1930 n3         1 0KO      -0.729600
     16 C15          3.3970     0.5060     0.0080 c6         1 0KO       0.167800
     17 C14          4.4160    -0.1140     1.0120 c6         1 0KO       0.191800
     18 C11          4.5000    -0.6610    -1.8380 c6         1 0KO       0.167800
     19 C12          5.5210    -1.2840    -0.8380 c6         1 0KO       0.191800
     20 N13          5.7240    -0.4260     0.3660 n3         1 0KO      -0.720500
     21 S16          6.9670    -0.9450     1.4360 s6         1 0KO       1.196100
     22 C32          6.4010    -2.5100     2.0890 c3         1 0KO      -0.383100
     23 O34          8.1610    -1.1700     0.6150 o          1 0KO      -0.532000
     24 O33          7.0220     0.0380     2.5220 o          1 0KO      -0.532000
     25 C4           0.2020    -0.8090    -0.9280 ca         1 0KO       0.038000
     26 C3          -1.0940    -0.6740    -0.3680 cp         1 0KO      -0.299500
     27 C8          -1.7390    -1.8530     0.3040 cp         1 0KO       0.295500
     28 N21         -2.6550    -1.6490     1.2760 nb         1 0KO      -0.347000
     29 N17         -1.3470    -3.0860    -0.0900 nb         1 0KO      -0.273000
     30 C18         -1.9290    -4.1280     0.5400 ca         1 0KO       0.217300
     31 C22         -1.5050    -5.5240     0.1270 c3         1 0KO      -0.142400
     32 N19         -2.8480    -4.0160     1.5190 nb         1 0KO      -0.295000
     33 C20         -3.1610    -2.7540     1.8320 ca         1 0KO       0.429900
     34 N23         -4.0730    -2.5730     2.8080 nv         1 0KO      -1.063900
     35 H1          -6.7480     5.5630    -2.4030 h1         1 0KO       0.045033
     36 H2          -7.4460     6.7510    -1.2830 h1         1 0KO       0.045033
     37 H3          -5.6820     6.5880    -1.4080 h1         1 0KO       0.045033
     38 H4          -6.6100     3.2130     1.4680 ha         1 0KO       0.135000
     39 H5          -4.9640     1.3330     1.6430 ha         1 0KO       0.112000
     40 H6          -3.1370     2.8880    -1.9790 h4         1 0KO       0.054100
     41 H7          -3.2660     0.1250     0.6000 hn         1 0KO       0.542000
     42 H8           0.5440     2.3830    -2.0620 h4         1 0KO       0.018100
     43 H9           2.1330    -0.4660    -3.0280 h1         1 0KO       0.040200
     44 H10          2.5240     1.1740    -2.5010 h1         1 0KO       0.040200
     45 H12          3.7690     1.4950    -0.3000 h1         1 0KO       0.047450
     46 H13          2.4490     0.6710     0.5390 h1         1 0KO       0.047450
     47 H14          4.5510     0.5950     1.8410 h1         1 0KO       0.060450
     48 H15          3.9690    -1.0250     1.4350 h1         1 0KO       0.060450
     49 H16          4.3630    -1.3580    -2.6780 h1         1 0KO       0.047450
     50 H17          4.9370     0.2600    -2.2530 h1         1 0KO       0.047450
     51 H18          5.1520    -2.2780    -0.5460 h1         1 0KO       0.060450
     52 H19          6.4700    -1.4370    -1.3720 h1         1 0KO       0.060450
     53 H20          7.1710    -2.8710     2.7780 h1         1 0KO       0.100033
     54 H21          5.4570    -2.3360     2.6160 h1         1 0KO       0.100033
     55 H22          6.2710    -3.2000     1.2500 h1         1 0KO       0.100033
     56 H23          0.7460    -1.7510    -0.8710 ha         1 0KO       0.154000
     57 H24         -0.6640    -5.8720     0.7370 hc         1 0KO       0.064033
     58 H25         -2.3260    -6.2420     0.2450 hc         1 0KO       0.064033
     59 H26         -1.1920    -5.5530    -0.9240 hc         1 0KO       0.064033
     60 H27         -4.1190    -1.6600     3.2520 hn         1 0KO       0.508500
     61 H28         -4.3040    -3.3690     3.3980 hn         1 0KO       0.508500
@<TRIPOS>BOND
     1     1     2 1   
     2     1    35 1   
     3     1    36 1   
     4     1    37 1   
     5     2     3 1   
     6     3     4 ar  
     7     3     6 ar  
     8     4     5 ar  
     9     4    38 1   
    10     5     8 ar  
    11     5    39 1   
    12     6     7 ar  
    13     7     8 ar  
    14     7    40 1   
    15     8     9 1   
    16     9    10 1   
    17     9    41 1   
    18    10    11 ar  
    19    10    26 ar  
    20    11    12 ar  
    21    12    13 ar  
    22    12    42 1   
    23    13    14 1   
    24    13    25 ar  
    25    14    15 1   
    26    14    43 1   
    27    14    44 1   
    28    15    16 1   
    29    15    18 1   
    30    16    17 1   
    31    16    45 1   
    32    16    46 1   
    33    17    20 1   
    34    17    47 1   
    35    17    48 1   
    36    18    19 1   
    37    18    49 1   
    38    18    50 1   
    39    19    20 1   
    40    19    51 1   
    41    19    52 1   
    42    20    21 1   
    43    21    22 1   
    44    21    23 2   
    45    21    24 2   
    46    22    53 1   
    47    22    54 1   
    48    22    55 1   
    49    25    26 ar  
    50    25    56 1   
    51    26    27 1   
    52    27    28 ar  
    53    27    29 ar  
    54    28    33 ar  
    55    29    30 ar  
    56    30    31 1   
    57    30    32 ar  
    58    31    57 1   
    59    31    58 1   
    60    31    59 1   
    61    32    33 ar  
    62    33    34 1   
    63    34    60 1   
    64    34    61 1   
@<TRIPOS>SUBSTRUCTURE
     1 0KO         1 TEMP              0 ****  ****    0 ROOT
