@<TRIPOS>MOLECULE
0KO
   61    64     1     0     0
SMALL
bcc


@<TRIPOS>ATOM
      1 C31         -6.2180     6.1580    -0.9300 c3         1 0KO       0.136700
      2 O30         -6.5000     5.0130    -0.1420 os         1 0KO      -0.440100
      3 C27         -5.6230     4.0020    -0.1710 ca         1 0KO       0.623600
      4 C28         -5.9120     2.8780     0.6130 ca         1 0KO      -0.242300
      5 C29         -5.0190     1.8370     0.5900 ca         1 0KO      -0.123000
      6 N26         -4.5480     4.0820    -0.9130 nb         1 0KO      -0.739000
      7 C25         -3.6770     3.0690    -0.9380 ca         1 0KO       0.428200
      8 C24         -3.8570     1.9050    -0.1980 ca         1 0KO       0.021300
      9 N7          -3.0250     0.7920    -0.1640 nu         1 0KO      -0.735300
     10 C2          -1.7780     0.6020    -0.6640 ca         1 0KO       0.734200
     11 N1          -1.2020     1.6040    -1.3190 nb         1 0KO      -0.766000
     12 C6           0.0200     1.4570    -1.8060 ca         1 0KO       0.488200
     13 C5           0.7680     0.2980    -1.7010 ca         1 0KO      -0.290600
     14 C9           2.1530     0.1790    -2.2700 c3         1 0KO       0.238100
     15 N10          3.0820    -0.3720    -1.3030 n3         1 0KO      -0.729600
     16 C15          3.3020     0.5050    -0.1710 c6         1 0KO       0.167800
     17 C14          4.1460    -0.1880     0.8790 c6         1 0KO       0.191800
     18 C11          4.3470    -0.7400    -1.9030 c6         1 0KO       0.167800
     19 C12          5.2220    -1.4620    -0.8950 c6         1 0KO       0.191800
     20 N13          5.4120    -0.6000     0.2730 n3         1 0KO      -0.720500
     21 S16          6.6500    -0.9790     1.3000 s6         1 0KO       1.226900
     22 C32          6.2090    -2.5070     2.0990 c3         1 0KO      -0.272300
     23 O34          7.8310    -1.2200     0.4840 o          1 0KO      -0.602800
     24 O33          6.6980     0.0620     2.3150 o          1 0KO      -0.602800
     25 C4           0.1700    -0.7540    -1.0220 ca         1 0KO       0.020000
     26 C3          -1.1030    -0.6460    -0.4810 cp         1 0KO      -0.364800
     27 C8          -1.6540    -1.8030     0.2450 cp         1 0KO       0.821500
     28 N21         -2.8470    -1.6980     0.8120 nb         1 0KO      -0.873000
     29 N17         -0.9060    -2.9040     0.2930 nb         1 0KO      -0.799000
     30 C18         -1.4270    -3.9300     0.9570 ca         1 0KO       0.743300
     31 C22         -0.6020    -5.1690     1.0620 c3         1 0KO      -0.142400
     32 N19         -2.6070    -3.9280     1.5550 nb         1 0KO      -0.821000
     33 C20         -3.2890    -2.7830     1.4640 ca         1 0KO       0.955900
     34 N23         -4.4830    -2.7150     2.0460 nv         1 0KO      -0.953500
     35 H1          -6.1660     5.9180    -1.9940 h1         1 0KO       0.045033
     36 H2          -7.0400     6.8490    -0.7600 h1         1 0KO       0.045033
     37 H3          -5.2810     6.6350    -0.6360 h1         1 0KO       0.045033
     38 H4          -6.8070     2.8340     1.2180 ha         1 0KO       0.153000
     39 H5          -5.2170     0.9560     1.1890 ha         1 0KO       0.130000
     40 H6          -2.8110     3.1970    -1.5670 h4         1 0KO       0.054100
     41 H7          -3.3720    -0.0120     0.3580 hn         1 0KO       0.486800
     42 H8           0.4340     2.3250    -2.3120 h4         1 0KO       0.018100
     43 H9           2.1380    -0.4950    -3.1320 h1         1 0KO       0.040200
     44 H10          2.4770     1.1610    -2.6530 h1         1 0KO       0.040200
     45 H12          3.7920     1.4470    -0.4700 h1         1 0KO       0.047450
     46 H13          2.3450     0.7680     0.2830 h1         1 0KO       0.047450
     47 H14          4.3340     0.5040     1.6970 h1         1 0KO       0.060450
     48 H15          3.5960    -1.0510     1.2750 h1         1 0KO       0.060450
     49 H16          4.1660    -1.4160    -2.7410 h1         1 0KO       0.047450
     50 H17          4.8930     0.1330    -2.2950 h1         1 0KO       0.047450
     51 H18          4.7450    -2.4090    -0.6140 h1         1 0KO       0.060450
     52 H19          6.1840    -1.6850    -1.3510 h1         1 0KO       0.060450
     53 H20          6.9920    -2.7470     2.8170 h1         1 0KO       0.100033
     54 H21          5.2600    -2.3870     2.6190 h1         1 0KO       0.100033
     55 H22          6.1350    -3.3010     1.3600 h1         1 0KO       0.100033
     56 H23          0.7140    -1.6800    -0.8910 ha         1 0KO       0.172000
     57 H24          0.0110    -5.1180     1.9640 hc         1 0KO       0.064033
     58 H25         -1.2280    -6.0550     1.1390 hc         1 0KO       0.064033
     59 H26          0.0700    -5.2640     0.2110 hc         1 0KO       0.064033
     60 H27         -4.9990    -1.8520     2.0630 hn         1 0KO       0.453300
     61 H28         -4.8200    -3.4850     2.5960 hn         1 0KO       0.453300
@<TRIPOS>BOND
     1     1     2 1   
     2     1    35 1   
     3     1    36 1   
     4     1    37 1   
     5     2     3 1   
     6     3     4 ar  
     7     3     6 ar  
     8     4     5 ar  
     9     4    38 1   
    10     5     8 ar  
    11     5    39 1   
    12     6     7 ar  
    13     7     8 ar  
    14     7    40 1   
    15     8     9 1   
    16     9    10 1   
    17     9    41 1   
    18    10    11 ar  
    19    10    26 ar  
    20    11    12 ar  
    21    12    13 ar  
    22    12    42 1   
    23    13    14 1   
    24    13    25 ar  
    25    14    15 1   
    26    14    43 1   
    27    14    44 1   
    28    15    16 1   
    29    15    18 1   
    30    16    17 1   
    31    16    45 1   
    32    16    46 1   
    33    17    20 1   
    34    17    47 1   
    35    17    48 1   
    36    18    19 1   
    37    18    49 1   
    38    18    50 1   
    39    19    20 1   
    40    19    51 1   
    41    19    52 1   
    42    20    21 1   
    43    21    22 1   
    44    21    23 2   
    45    21    24 2   
    46    22    53 1   
    47    22    54 1   
    48    22    55 1   
    49    25    26 ar  
    50    25    56 1   
    51    26    27 1   
    52    27    28 ar  
    53    27    29 ar  
    54    28    33 ar  
    55    29    30 ar  
    56    30    31 1   
    57    30    32 ar  
    58    31    57 1   
    59    31    58 1   
    60    31    59 1   
    61    32    33 ar  
    62    33    34 1   
    63    34    60 1   
    64    34    61 1   
@<TRIPOS>SUBSTRUCTURE
     1 0KO         1 TEMP              0 ****  ****    0 ROOT
