@<TRIPOS>MOLECULE
0KP
   44    47     1     0     0
SMALL
No Charge or Current Charge


@<TRIPOS>ATOM
      1 O1          -2.1790     0.7960    -2.3110 o          1 0KP      -0.503000
      2 C1          -1.9210     1.0410    -1.1360 c          1 0KP       0.570000
      3 C2          -1.3890     0.1280     0.0110 c5         1 0KP       0.252800
      4 N1          -1.2000     1.0330     1.1800 nu         1 0KP      -0.900400
      5 C3          -1.7130     2.2400     0.8270 c2         1 0KP       0.676800
      6 N2          -2.0520     2.2680    -0.5130 n          1 0KP      -0.391300
      7 N3          -2.0170     3.0890     1.7070 n2         1 0KP      -0.859100
      8 C4          -2.5520     3.4520    -1.2400 c3         1 0KP       0.091300
      9 C5          -2.4080    -0.9520     0.4350 ca         1 0KP      -0.109300
     10 C6          -1.9820    -2.0360     1.2360 ca         1 0KP      -0.089000
     11 C7          -2.8840    -3.0300     1.6490 ca         1 0KP      -0.111500
     12 C8          -4.2350    -2.9520     1.2780 ca         1 0KP      -0.096000
     13 C9          -4.6800    -1.8750     0.4990 ca         1 0KP      -0.111500
     14 C10         -3.7780    -0.8790     0.0830 ca         1 0KP      -0.089000
     15 C11         -0.0640    -0.5060    -0.4690 ca         1 0KP      -0.092300
     16 C12         -0.0990    -1.5820    -1.3820 ca         1 0KP      -0.072000
     17 C13          1.0870    -2.1700    -1.8470 ca         1 0KP      -0.116000
     18 C14          2.3300    -1.6870    -1.4140 ca         1 0KP      -0.089000
     19 C15          2.4120    -0.6030    -0.5080 cp         1 0KP      -0.041000
     20 C16          1.2000    -0.0250    -0.0510 ca         1 0KP      -0.075000
     21 C17          6.1600     0.9050     0.9070 ca         1 0KP       0.335900
     22 N4           5.0920     0.9280     1.7350 nb         1 0KP      -0.665000
     23 C18          3.9170     0.4460     1.2620 ca         1 0KP       0.345900
     24 C19          3.7390    -0.0820    -0.0450 cp         1 0KP      -0.084000
     25 C20          4.8770    -0.0940    -0.8900 ca         1 0KP      -0.066000
     26 C21          6.0950     0.4060    -0.4040 ca         1 0KP      -0.164000
     27 H1          -2.4830     3.8760     1.2380 hn         1 0KP       0.402400
     28 H3          -3.6450     3.5010    -1.1590 h1         1 0KP       0.052367
     29 H4          -2.1170     4.3670    -0.8180 h1         1 0KP       0.052367
     30 H5          -2.2730     3.3950    -2.3000 h1         1 0KP       0.052367
     31 H6          -0.9400    -2.1120     1.5410 ha         1 0KP       0.120000
     32 H7          -2.5360    -3.8600     2.2610 ha         1 0KP       0.117500
     33 H8          -4.9350    -3.7210     1.5990 ha         1 0KP       0.116000
     34 H9          -5.7290    -1.8070     0.2170 ha         1 0KP       0.117500
     35 H10         -4.1640    -0.0530    -0.5090 ha         1 0KP       0.120000
     36 H11         -1.0530    -1.9690    -1.7350 ha         1 0KP       0.130000
     37 H12          1.0420    -3.0030    -2.5450 ha         1 0KP       0.118000
     38 H13          3.2350    -2.1670    -1.7770 ha         1 0KP       0.115000
     39 H14          1.2540     0.8220     0.6280 ha         1 0KP       0.133000
     40 H16          3.0840     0.4710     1.9650 h4         1 0KP       0.021100
     41 H17          4.8140    -0.4700    -1.9080 ha         1 0KP       0.121000
     42 H18          6.9820     0.4130    -1.0310 ha         1 0KP       0.124000
     43 H19         -1.5070     0.7370     2.1000 hn         1 0KP       0.514000
     44 H15          7.0940     1.2990     1.3060 h4         1 0KP       0.019100
@<TRIPOS>BOND
     1     1     2 2   
     2     2     3 1   
     3     2     6 1   
     4     3     4 1   
     5     3     9 1   
     6     3    15 1   
     7     4     5 1   
     8     4    43 1   
     9     5     6 1   
    10     5     7 2   
    11     6     8 1   
    12     7    27 1   
    13     8    28 1   
    14     8    29 1   
    15     8    30 1   
    16     9    10 ar  
    17     9    14 ar  
    18    10    11 ar  
    19    10    31 1   
    20    11    12 ar  
    21    11    32 1   
    22    12    13 ar  
    23    12    33 1   
    24    13    14 ar  
    25    13    34 1   
    26    14    35 1   
    27    15    16 ar  
    28    15    20 ar  
    29    16    17 ar  
    30    16    36 1   
    31    17    18 ar  
    32    17    37 1   
    33    18    19 ar  
    34    18    38 1   
    35    19    20 ar  
    36    19    24 1   
    37    20    39 1   
    38    21    22 ar  
    39    21    26 ar  
    40    21    44 1   
    41    22    23 ar  
    42    23    24 ar  
    43    23    40 1   
    44    24    25 ar  
    45    25    26 ar  
    46    25    41 1   
    47    26    42 1   
@<TRIPOS>SUBSTRUCTURE
     1 0KP         1 TEMP              0 ****  ****    0 ROOT
