@<TRIPOS>MOLECULE
0KP
   44    47     1     0     0
SMALL
abcg2


@<TRIPOS>ATOM
      1 O1          -2.1060     0.6590    -2.2650 o          1 0KP      -0.503000
      2 C1          -1.8910     0.9820    -1.1220 c          1 0KP       0.570000
      3 C2          -1.3500     0.0720    -0.0080 c5         1 0KP       0.252800
      4 N1          -1.1670     1.0270     1.0600 nu         1 0KP      -0.900400
      5 C3          -1.7240     2.2400     0.7770 c2         1 0KP       0.676800
      6 N2          -2.0790     2.2090    -0.5750 n          1 0KP      -0.391300
      7 N3          -1.8590     3.1890     1.6040 n2         1 0KP      -0.859100
      8 C4          -2.5930     3.3600    -1.2780 c3         1 0KP       0.091300
      9 C5          -2.3690    -0.9870     0.3980 ca         1 0KP      -0.109300
     10 C6          -1.9410    -2.0840     1.1430 ca         1 0KP      -0.089000
     11 C7          -2.8520    -3.0160     1.6180 ca         1 0KP      -0.111500
     12 C8          -4.2060    -2.8670     1.3500 ca         1 0KP      -0.096000
     13 C9          -4.6410    -1.7760     0.6120 ca         1 0KP      -0.111500
     14 C10         -3.7290    -0.8400     0.1420 ca         1 0KP      -0.089000
     15 C11         -0.0460    -0.5410    -0.4920 ca         1 0KP      -0.092300
     16 C12         -0.0750    -1.5730    -1.4280 ca         1 0KP      -0.072000
     17 C13          1.1100    -2.1100    -1.9030 ca         1 0KP      -0.116000
     18 C14          2.3310    -1.6320    -1.4490 ca         1 0KP      -0.089000
     19 C15          2.3770    -0.6010    -0.5140 cp         1 0KP      -0.041000
     20 C16          1.1760    -0.0600    -0.0490 ca         1 0KP      -0.075000
     21 C17          6.0140     0.8570     1.0130 ca         1 0KP       0.335900
     22 N4           4.9710     0.7330     1.8260 nb         1 0KP      -0.665000
     23 C18          3.8370     0.2700     1.3190 ca         1 0KP       0.345900
     24 C19          3.6680    -0.0920    -0.0180 cp         1 0KP      -0.084000
     25 C20          4.7760     0.0430    -0.8530 ca         1 0KP      -0.066000
     26 C21          5.9650     0.5220    -0.3320 ca         1 0KP      -0.164000
     27 H1          -2.2910     4.0060     1.1890 hn         1 0KP       0.402400
     28 H3          -3.5410     3.6790    -0.8480 h1         1 0KP       0.052367
     29 H4          -1.8830     4.1840    -1.2320 h1         1 0KP       0.052367
     30 H5          -2.7540     3.0950    -2.3180 h1         1 0KP       0.052367
     31 H6          -0.8880    -2.2190     1.3550 ha         1 0KP       0.120000
     32 H7          -2.5010    -3.8620     2.1940 ha         1 0KP       0.117500
     33 H8          -4.9170    -3.5970     1.7150 ha         1 0KP       0.116000
     34 H9          -5.6940    -1.6490     0.3960 ha         1 0KP       0.117500
     35 H10         -4.1060     0.0030    -0.4230 ha         1 0KP       0.120000
     36 H11         -1.0180    -1.9680    -1.7790 ha         1 0KP       0.130000
     37 H12          1.0840    -2.9160    -2.6240 ha         1 0KP       0.118000
     38 H13          3.2480    -2.0820    -1.8090 ha         1 0KP       0.115000
     39 H14          1.1960     0.7600     0.6580 ha         1 0KP       0.133000
     40 H16          3.0130     0.1620     2.0160 h4         1 0KP       0.021100
     41 H17          4.7050    -0.2060    -1.9050 ha         1 0KP       0.121000
     42 H18          6.8390     0.6430    -0.9580 ha         1 0KP       0.124000
     43 H19         -1.1390     0.7200     2.0200 hn         1 0KP       0.514000
     44 H15          6.9290     1.2390     1.4500 h4         1 0KP       0.019100
@<TRIPOS>BOND
     1     1     2 2   
     2     2     3 1   
     3     2     6 1   
     4     3     4 1   
     5     3     9 1   
     6     3    15 1   
     7     4     5 1   
     8     4    43 1   
     9     5     6 1   
    10     5     7 2   
    11     6     8 1   
    12     7    27 1   
    13     8    28 1   
    14     8    29 1   
    15     8    30 1   
    16     9    10 ar  
    17     9    14 ar  
    18    10    11 ar  
    19    10    31 1   
    20    11    12 ar  
    21    11    32 1   
    22    12    13 ar  
    23    12    33 1   
    24    13    14 ar  
    25    13    34 1   
    26    14    35 1   
    27    15    16 ar  
    28    15    20 ar  
    29    16    17 ar  
    30    16    36 1   
    31    17    18 ar  
    32    17    37 1   
    33    18    19 ar  
    34    18    38 1   
    35    19    20 ar  
    36    19    24 1   
    37    20    39 1   
    38    21    22 ar  
    39    21    26 ar  
    40    21    44 1   
    41    22    23 ar  
    42    23    24 ar  
    43    23    40 1   
    44    24    25 ar  
    45    25    26 ar  
    46    25    41 1   
    47    26    42 1   
@<TRIPOS>SUBSTRUCTURE
     1 0KP         1 TEMP              0 ****  ****    0 ROOT
