@<TRIPOS>MOLECULE
0KQ
   41    44     1     0     0
SMALL
bcc


@<TRIPOS>ATOM
      1 C1          -2.7410    -0.7500    -0.9440 c          1 0KQ       0.714500
      2 C2          -2.4200    -0.0250     0.3670 c5         1 0KQ       0.250500
      3 N1          -3.5510     0.8490     0.4740 nu         1 0KQ      -0.877200
      4 C3          -4.4990     0.6290    -0.4770 c2         1 0KQ       0.690800
      5 N2          -3.9630    -0.3230    -1.3500 n          1 0KQ      -0.454300
      6 N3          -5.6290     1.2000    -0.5300 n2         1 0KQ      -0.871100
      7 C4          -4.6600    -0.7960    -2.5220 c3         1 0KQ       0.092300
      8 O1          -2.0420    -1.5690    -1.4940 o          1 0KQ      -0.585500
      9 C5          -1.1010     0.7240     0.2410 ca         1 0KQ      -0.085300
     10 C6          -2.3690    -1.0780     1.4710 cx         1 0KQ      -0.141700
     11 C7          -1.0730     2.1110     0.1420 ca         1 0KQ      -0.100000
     12 C8           0.1370     2.7820     0.0240 ca         1 0KQ      -0.132000
     13 C9           1.3290     2.0800    -0.0140 ca         1 0KQ      -0.105000
     14 C10          1.3200     0.6880     0.0720 cp         1 0KQ      -0.042000
     15 C11          0.1020     0.0250     0.2040 ca         1 0KQ      -0.087000
     16 C12          2.5790    -0.0750     0.0160 cp         1 0KQ      -0.141300
     17 C13          2.6610    -1.2890    -0.6670 ca         1 0KQ       0.413200
     18 C15          4.8660    -1.5710    -0.1600 ca         1 0KQ       0.414200
     19 C16          3.7370     0.3910     0.6320 ca         1 0KQ      -0.081000
     20 N5           3.7670    -2.0140    -0.7500 nb         1 0KQ      -0.656000
     21 C17         -2.7370    -0.7410     2.8790 cx         1 0KQ      -0.122900
     22 C18         -3.6220    -1.6380     2.0630 cx         1 0KQ      -0.122900
     23 C19          4.8870    -0.3700     0.5350 ca         1 0KQ      -0.098900
     24 CL1          6.3490     0.1580     1.2850 cl         1 0KQ      -0.093400
     25 H1          -6.1800     0.8870    -1.3200 hn         1 0KQ       0.403400
     26 H3          -5.5630    -1.3380    -2.2420 h1         1 0KQ       0.052700
     27 H4          -4.9290     0.0370    -3.1700 h1         1 0KQ       0.052700
     28 H5          -4.0060    -1.4650    -3.0720 h1         1 0KQ       0.052700
     29 H6          -1.5560    -1.7840     1.3550 hc         1 0KQ       0.099700
     30 H7          -1.9920     2.6790     0.1580 ha         1 0KQ       0.144000
     31 H8           0.1450     3.8610    -0.0490 ha         1 0KQ       0.137000
     32 H9           2.2640     2.6150    -0.1320 ha         1 0KQ       0.136000
     33 H10          0.1080    -1.0520     0.2960 ha         1 0KQ       0.144000
     34 H11          1.7920    -1.6790    -1.1850 h4         1 0KQ       0.034100
     35 H12          5.7590    -2.1790    -0.2400 h4         1 0KQ       0.035100
     36 H13          3.7370     1.3190     1.1880 ha         1 0KQ       0.153000
     37 H14         -2.1420    -1.1790     3.6690 hc         1 0KQ       0.076450
     38 H15         -3.0990     0.2540     3.1050 hc         1 0KQ       0.076450
     39 H16         -4.5760    -1.2390     1.7400 hc         1 0KQ       0.076450
     40 H17         -3.6370    -2.6950     2.2910 hc         1 0KQ       0.076450
     41 H18         -3.7640     1.3920     1.2940 hn         1 0KQ       0.469800
@<TRIPOS>BOND
     1     1     2 1   
     2     1     5 1   
     3     1     8 2   
     4     2     3 1   
     5     2     9 1   
     6     2    10 1   
     7     3     4 1   
     8     3    41 1   
     9     4     5 1   
    10     4     6 2   
    11     5     7 1   
    12     6    25 1   
    13     7    26 1   
    14     7    27 1   
    15     7    28 1   
    16     9    11 ar  
    17     9    15 ar  
    18    10    21 1   
    19    10    22 1   
    20    10    29 1   
    21    11    12 ar  
    22    11    30 1   
    23    12    13 ar  
    24    12    31 1   
    25    13    14 ar  
    26    13    32 1   
    27    14    15 ar  
    28    14    16 1   
    29    15    33 1   
    30    16    17 ar  
    31    16    19 ar  
    32    17    20 ar  
    33    17    34 1   
    34    18    20 ar  
    35    18    23 ar  
    36    18    35 1   
    37    19    23 ar  
    38    19    36 1   
    39    21    22 1   
    40    21    37 1   
    41    21    38 1   
    42    22    39 1   
    43    22    40 1   
    44    23    24 1   
@<TRIPOS>SUBSTRUCTURE
     1 0KQ         1 TEMP              0 ****  ****    0 ROOT
