@<TRIPOS>MOLECULE
0KQ
   41    44     1     0     0
SMALL
No Charge or Current Charge


@<TRIPOS>ATOM
      1 C1          -2.6850    -0.8980    -0.9820 c          1 0KQ       0.572000
      2 C2          -2.4980    -0.0250     0.2960 c5         1 0KQ       0.250500
      3 N1          -3.6870     0.8830     0.3420 nu         1 0KQ      -0.932400
      4 C3          -4.4780     0.5390    -0.7040 c2         1 0KQ       0.690800
      5 N2          -3.8840    -0.4330    -1.4890 n          1 0KQ      -0.387300
      6 N3          -5.6930     0.8700    -0.7010 n2         1 0KQ      -0.871100
      7 C4          -4.4670    -1.0010    -2.7220 c3         1 0KQ       0.092300
      8 O1          -1.9990    -1.7950    -1.4610 o          1 0KQ      -0.510000
      9 C5          -1.1410     0.7210     0.3150 ca         1 0KQ      -0.085300
     10 C6          -2.4290    -0.8710     1.6230 cx         1 0KQ      -0.141700
     11 C7          -1.0640     2.1160     0.5360 ca         1 0KQ      -0.082000
     12 C8           0.1740     2.7750     0.5530 ca         1 0KQ      -0.114000
     13 C9           1.3610     2.0560     0.3530 ca         1 0KQ      -0.087000
     14 C10          1.3330     0.6590     0.1320 cp         1 0KQ      -0.042000
     15 C11          0.0700     0.0150     0.1190 ca         1 0KQ      -0.069000
     16 C12          2.5970    -0.1150    -0.0820 cp         1 0KQ      -0.076000
     17 C13          2.6420    -1.2430    -0.9490 ca         1 0KQ       0.347900
     18 C15          4.8950    -1.6110    -0.5440 ca         1 0KQ       0.348900
     19 C16          3.8050     0.2440     0.5690 ca         1 0KQ      -0.063000
     20 N5           3.7560    -1.9780    -1.1820 nb         1 0KQ      -0.656000
     21 C17         -2.8370    -0.1900     2.9180 cx         1 0KQ      -0.122900
     22 C18         -3.7340    -1.2490     2.3050 cx         1 0KQ      -0.122900
     23 C19          4.9640    -0.5130     0.3360 ca         1 0KQ       0.058000
     24 Cl1          6.4750    -0.0900     1.1380 cl         1 0KQ      -0.185000
     25 H1          -6.1490     0.3960    -1.4910 hn         1 0KQ       0.403400
     26 H3          -5.0950    -1.8640    -2.4700 h1         1 0KQ       0.052700
     27 H4          -5.0770    -0.2460    -3.2340 h1         1 0KQ       0.052700
     28 H5          -3.6710    -1.3240    -3.4060 h1         1 0KQ       0.052700
     29 H6          -1.6320    -1.6080     1.6940 hc         1 0KQ       0.099700
     30 H7          -1.9640     2.7040     0.6980 ha         1 0KQ       0.126000
     31 H8           0.2140     3.8490     0.7210 ha         1 0KQ       0.119000
     32 H9           2.3070     2.5910     0.3560 ha         1 0KQ       0.118000
     33 H10          0.0370    -1.0620    -0.0270 ha         1 0KQ       0.126000
     34 H11          1.7500    -1.5590    -1.4870 h4         1 0KQ       0.034100
     35 H12          5.7790    -2.2160    -0.7430 h4         1 0KQ       0.035100
     36 H13          3.8410     1.0850     1.2560 ha         1 0KQ       0.135000
     37 H14         -2.2870    -0.4590     3.8170 hc         1 0KQ       0.076450
     38 H15         -3.1650     0.8460     2.9010 hc         1 0KQ       0.076450
     39 H16         -4.6850    -0.9380     1.8780 hc         1 0KQ       0.076450
     40 H17         -3.7750    -2.2150     2.8010 hc         1 0KQ       0.076450
     41 H18         -4.2150     0.9860     1.1990 hn         1 0KQ       0.525000
@<TRIPOS>BOND
     1     1     2 1   
     2     1     5 1   
     3     1     8 2   
     4     2     3 1   
     5     2     9 1   
     6     2    10 1   
     7     3     4 1   
     8     3    41 1   
     9     4     5 1   
    10     4     6 2   
    11     5     7 1   
    12     6    25 1   
    13     7    26 1   
    14     7    27 1   
    15     7    28 1   
    16     9    11 ar  
    17     9    15 ar  
    18    10    21 1   
    19    10    22 1   
    20    10    29 1   
    21    11    12 ar  
    22    11    30 1   
    23    12    13 ar  
    24    12    31 1   
    25    13    14 ar  
    26    13    32 1   
    27    14    15 ar  
    28    14    16 1   
    29    15    33 1   
    30    16    17 ar  
    31    16    19 ar  
    32    17    20 ar  
    33    17    34 1   
    34    18    20 ar  
    35    18    23 ar  
    36    18    35 1   
    37    19    23 ar  
    38    19    36 1   
    39    21    22 1   
    40    21    37 1   
    41    21    38 1   
    42    22    39 1   
    43    22    40 1   
    44    23    24 1   
@<TRIPOS>SUBSTRUCTURE
     1 0KQ         1 TEMP              0 ****  ****    0 ROOT
