@<TRIPOS>MOLECULE
0KR
   46    49     1     0     0
SMALL
No Charge or Current Charge


@<TRIPOS>ATOM
      1 C1          22.4080    10.5670    21.9440 c5         1 0KR       0.240500
      2 N1          21.6710     9.2840    22.1410 nu         1 0KR      -0.914400
      3 C2          21.9990     8.8500    23.3850 c2         1 0KR       0.679800
      4 N2          22.6900     9.8190    24.0930 n          1 0KR      -0.392300
      5 C3          23.0010    10.9340    23.3370 c          1 0KR       0.568000
      6 C4          21.4350    11.6780    21.4000 cx         1 0KR      -0.131700
      7 O1          23.5750    11.9430    23.7350 o          1 0KR      -0.501000
      8 C5          23.4390    10.4340    20.7990 ca         1 0KR      -0.098300
      9 C6          24.8160    10.7090    20.9830 ca         1 0KR      -0.090000
     10 C7          25.7580    10.5770    19.9300 cp         1 0KR      -0.031000
     11 C8          25.2860    10.1570    18.6640 ca         1 0KR      -0.087000
     12 C9          23.9280     9.8740    18.4630 ca         1 0KR      -0.111000
     13 C10         23.0150    10.0080    19.5190 ca         1 0KR      -0.073000
     14 N3          21.8630     7.6360    23.6930 n2         1 0KR      -0.867100
     15 C11         23.0780     9.7200    25.5150 c3         1 0KR       0.092300
     16 C12         20.2130    11.9200    22.2700 cx         1 0KR      -0.118400
     17 C13         20.0470    11.3090    20.8960 cx         1 0KR      -0.118400
     18 C14         27.2090    10.8740    20.1510 cp         1 0KR      -0.089000
     19 C15         27.8430    10.6040    21.3900 ca         1 0KR      -0.052000
     20 C16         29.2070    10.9020    21.5490 ca         1 0KR      -0.010000
     21 C17         29.9070    11.4650    20.4630 ca         1 0KR       0.355900
     22 C19         28.0140    11.4400    19.1260 ca         1 0KR       0.349900
     23 C21         29.8700    10.6340    22.7930 cg         1 0KR      -0.139000
     24 N5          29.3290    11.7330    19.2670 nb         1 0KR      -0.664000
     25 C22         30.4220    10.4050    23.8510 c1         1 0KR      -0.099100
     26 C23         31.0480    10.1190    25.1460 c3         1 0KR      -0.010000
     27 H1          21.8940    12.5700    20.9790 hc         1 0KR       0.099700
     28 H2          25.1790    11.0440    21.9490 ha         1 0KR       0.118000
     29 H3          25.9780    10.0320    17.8350 ha         1 0KR       0.120000
     30 H4          23.5820     9.5460    17.4850 ha         1 0KR       0.119000
     31 H5          21.9670     9.7810    19.3370 ha         1 0KR       0.123000
     32 H6          22.2690     7.5020    24.6280 hn         1 0KR       0.402400
     33 H8          22.3560     9.0990    26.0610 h1         1 0KR       0.052367
     34 H9          24.0760     9.2700    25.5940 h1         1 0KR       0.052367
     35 H10         23.0950    10.7160    25.9760 h1         1 0KR       0.052367
     36 H11         19.8880    12.9480    22.4070 hc         1 0KR       0.076700
     37 H12         20.0380    11.2760    23.1290 hc         1 0KR       0.076700
     38 H13         19.6170    11.9350    20.1180 hc         1 0KR       0.076700
     39 H14         19.7390    10.2680    20.8380 hc         1 0KR       0.076700
     40 H15         27.2880    10.1550    22.2110 ha         1 0KR       0.128000
     41 H16         30.9660    11.7080    20.5500 h4         1 0KR       0.027100
     42 H17         27.5820    11.6800    18.1550 h4         1 0KR       0.023100
     43 H18         30.5260     9.2960    25.6470 hc         1 0KR       0.056033
     44 H19         32.0970     9.8350    25.0070 hc         1 0KR       0.056033
     45 H20         31.0080    11.0030    25.7920 hc         1 0KR       0.056033
     46 H21         21.7450     8.5460    21.4500 hn         1 0KR       0.518000
@<TRIPOS>BOND
     1     1     2 1   
     2     1     5 1   
     3     1     6 1   
     4     1     8 1   
     5     2     3 1   
     6     2    46 1   
     7     3     4 1   
     8     3    14 2   
     9     4     5 1   
    10     4    15 1   
    11     5     7 2   
    12     6    16 1   
    13     6    17 1   
    14     6    27 1   
    15     8     9 ar  
    16     8    13 ar  
    17     9    10 ar  
    18     9    28 1   
    19    10    11 ar  
    20    10    18 1   
    21    11    12 ar  
    22    11    29 1   
    23    12    13 ar  
    24    12    30 1   
    25    13    31 1   
    26    14    32 1   
    27    15    33 1   
    28    15    34 1   
    29    15    35 1   
    30    16    17 1   
    31    16    36 1   
    32    16    37 1   
    33    17    38 1   
    34    17    39 1   
    35    18    19 ar  
    36    18    22 ar  
    37    19    20 ar  
    38    19    40 1   
    39    20    21 ar  
    40    20    23 1   
    41    21    24 ar  
    42    21    41 1   
    43    22    24 ar  
    44    22    42 1   
    45    23    25 3   
    46    25    26 1   
    47    26    43 1   
    48    26    44 1   
    49    26    45 1   
@<TRIPOS>SUBSTRUCTURE
     1 0KR         1 TEMP              0 ****  ****    0 ROOT
