@<TRIPOS>MOLECULE
0KR
   46    49     1     0     0
SMALL
bcc


@<TRIPOS>ATOM
      1 C1          22.3730    10.6700    21.8330 c5         1 0KR       0.240500
      2 N1          22.7440     9.5750    22.6940 nu         1 0KR      -0.859200
      3 C2          23.1210     9.9830    23.9400 c2         1 0KR       0.679800
      4 N2          22.8790    11.3600    23.9980 n          1 0KR      -0.459300
      5 C3          22.4660    11.8520    22.8010 c          1 0KR       0.710500
      6 C4          20.9330    10.5880    21.3610 cx         1 0KR      -0.131700
      7 O1          22.2010    13.0020    22.5440 o          1 0KR      -0.576500
      8 C5          23.3720    10.8560    20.6980 ca         1 0KR      -0.098300
      9 C6          24.7310    10.8740    20.9970 ca         1 0KR      -0.108000
     10 C7          25.6930    11.0410    20.0060 cp         1 0KR      -0.031000
     11 C8          25.2740    11.1890    18.6830 ca         1 0KR      -0.105000
     12 C9          23.9250    11.1720    18.3760 ca         1 0KR      -0.129000
     13 C10         22.9750    11.0070    19.3760 ca         1 0KR      -0.091000
     14 N3          23.5900     9.2270    24.8420 n2         1 0KR      -0.867100
     15 C11         23.0810    12.1440    25.1920 c3         1 0KR       0.092300
     16 C12         19.8880     9.9510    22.2200 cx         1 0KR      -0.118400
     17 C13         20.3300     9.2830    20.9520 cx         1 0KR      -0.118400
     18 C14         27.1260    11.0550    20.3520 cp         1 0KR      -0.154300
     19 C15         27.6460    10.2270    21.3400 ca         1 0KR      -0.070000
     20 C16         29.0060    10.2780    21.6390 ca         1 0KR      -0.075300
     21 C17         29.7970    11.1710    20.9110 ca         1 0KR       0.421200
     22 C19         28.0170    11.9080    19.6990 ca         1 0KR       0.415200
     23 C21         29.5800     9.4490    22.6440 cg         1 0KR      -0.139000
     24 N5          29.3130    11.9630    19.9680 nb         1 0KR      -0.664000
     25 C22         30.0690     8.7540    23.4990 c1         1 0KR      -0.099100
     26 C23         30.6560     7.9150    24.5280 c3         1 0KR      -0.010000
     27 H1          20.6120    11.4620    20.8050 hc         1 0KR       0.099700
     28 H2          25.0590    10.7740    22.0260 ha         1 0KR       0.136000
     29 H3          26.0040    11.2930    17.8900 ha         1 0KR       0.138000
     30 H4          23.6080    11.2770    17.3470 ha         1 0KR       0.137000
     31 H5          21.9280    10.9880    19.1080 ha         1 0KR       0.141000
     32 H6          23.8120     9.7290    25.6920 hn         1 0KR       0.402400
     33 H8          22.5000    11.7380    26.0180 h1         1 0KR       0.052367
     34 H9          24.1340    12.1660    25.4690 h1         1 0KR       0.052367
     35 H10         22.7500    13.1610    25.0040 h1         1 0KR       0.052367
     36 H11         18.9120    10.4180    22.2420 hc         1 0KR       0.076700
     37 H12         20.1920     9.4980    23.1550 hc         1 0KR       0.076700
     38 H13         19.6590     9.2840    20.1040 hc         1 0KR       0.076700
     39 H14         20.9310     8.3860    21.0400 hc         1 0KR       0.076700
     40 H15         27.0070     9.5300    21.8670 ha         1 0KR       0.146000
     41 H16         30.8610    11.2350    21.1110 h4         1 0KR       0.027100
     42 H17         27.6560    12.5880    18.9350 h4         1 0KR       0.023100
     43 H18         30.0310     7.0450    24.7260 hc         1 0KR       0.056033
     44 H19         31.6420     7.5610    24.2270 hc         1 0KR       0.056033
     45 H20         30.7690     8.4660    25.4630 hc         1 0KR       0.056033
     46 H21         23.1090     8.7120    22.3260 hn         1 0KR       0.462800
@<TRIPOS>BOND
     1     1     2 1   
     2     1     5 1   
     3     1     6 1   
     4     1     8 1   
     5     2     3 1   
     6     2    46 1   
     7     3     4 1   
     8     3    14 2   
     9     4     5 1   
    10     4    15 1   
    11     5     7 2   
    12     6    16 1   
    13     6    17 1   
    14     6    27 1   
    15     8     9 ar  
    16     8    13 ar  
    17     9    10 ar  
    18     9    28 1   
    19    10    11 ar  
    20    10    18 1   
    21    11    12 ar  
    22    11    29 1   
    23    12    13 ar  
    24    12    30 1   
    25    13    31 1   
    26    14    32 1   
    27    15    33 1   
    28    15    34 1   
    29    15    35 1   
    30    16    17 1   
    31    16    36 1   
    32    16    37 1   
    33    17    38 1   
    34    17    39 1   
    35    18    19 ar  
    36    18    22 ar  
    37    19    20 ar  
    38    19    40 1   
    39    20    21 ar  
    40    20    23 1   
    41    21    24 ar  
    42    21    41 1   
    43    22    24 ar  
    44    22    42 1   
    45    23    25 3   
    46    25    26 1   
    47    26    43 1   
    48    26    44 1   
    49    26    45 1   
@<TRIPOS>SUBSTRUCTURE
     1 0KR         1 TEMP              0 ****  ****    0 ROOT
