@<TRIPOS>MOLECULE
0KS
   40    41     1     0     0
SMALL
No Charge or Current Charge


@<TRIPOS>ATOM
      1 C1          -2.1940     0.0160     0.2110 ca         1 0KS      -0.145300
      2 C2          -1.4910     1.2030    -0.1150 ca         1 0KS      -0.069000
      3 C3          -1.4320    -1.0910     0.6630 ca         1 0KS      -0.069000
      4 C4          -0.0950     1.2840     0.0230 ca         1 0KS      -0.095500
      5 C5          -0.0360    -1.0020     0.8000 ca         1 0KS      -0.095500
      6 C6           0.6450     0.1840     0.4790 ca         1 0KS       0.265000
      7 N1           2.0400     0.2760     0.6250 nh         1 0KS      -0.759300
      8 S2           2.9310     0.0820    -0.8160 sy         1 0KS       1.142600
      9 O4           2.8340    -1.3330    -1.1900 o          1 0KS      -0.532500
     10 O5           2.5020     1.1510    -1.7260 o          1 0KS      -0.532500
     11 C8           4.6040     0.4410    -0.2440 ca         1 0KS      -0.274500
     12 C9           5.5090    -0.6060     0.0260 ca         1 0KS      -0.010500
     13 C10          5.0050     1.7800    -0.0570 ca         1 0KS      -0.010500
     14 C11          6.3040     2.0670     0.3960 ca         1 0KS      -0.131000
     15 C12          6.8070    -0.3120     0.4790 ca         1 0KS      -0.131000
     16 C13          7.2060     1.0230     0.6640 ca         1 0KS      -0.054000
     17 C7           2.6800    -0.1430     1.8880 c3         1 0KS       0.184100
     18 C18         -3.7410    -0.0400     0.0250 c3         1 0KS       0.107300
     19 C19         -4.0690    -0.2550    -1.5060 c3         1 0KS       0.305000
     20 C20         -4.4630    -1.1310     0.9240 c3         1 0KS       0.305000
     21 F5          -3.5070    -1.3920    -1.9800 f          1 0KS      -0.096833
     22 F4          -5.4020    -0.3320    -1.7350 f          1 0KS      -0.096833
     23 F6          -3.5960     0.7640    -2.2630 f          1 0KS      -0.096833
     24 F7          -5.8060    -0.9520     0.9430 f          1 0KS      -0.096833
     25 F9          -4.2430    -2.3960     0.4940 f          1 0KS      -0.096833
     26 F8          -4.0420    -1.0550     2.2100 f          1 0KS      -0.096833
     27 O1          -4.2560     1.2540     0.4340 oh         1 0KS      -0.620000
     28 H1          -2.0230     2.0770    -0.4850 ha         1 0KS       0.133500
     29 H2          -1.8970    -2.0400     0.9110 ha         1 0KS       0.133500
     30 H3           0.4170     2.2090    -0.2240 ha         1 0KS       0.132500
     31 H4           0.5230    -1.8660     1.1460 ha         1 0KS       0.132500
     32 H5           5.2140    -1.6460    -0.1110 ha         1 0KS       0.136000
     33 H6           4.3120     2.5970    -0.2560 ha         1 0KS       0.136000
     34 H7           6.6120     3.1000     0.5410 ha         1 0KS       0.121000
     35 H8           7.5040    -1.1200     0.6870 ha         1 0KS       0.121000
     36 H9           8.2110     1.2480     1.0150 ha         1 0KS       0.118000
     37 H10          3.1270    -1.1410     1.7920 h1         1 0KS       0.053033
     38 H11          3.4600     0.5710     2.1830 h1         1 0KS       0.053033
     39 H12          1.9420    -0.1750     2.7010 h1         1 0KS       0.053033
     40 H13         -3.8890     1.4450     1.3250 ho         1 0KS       0.479000
@<TRIPOS>BOND
     1     1     2 ar  
     2     1     3 ar  
     3     1    18 1   
     4     2     4 ar  
     5     2    28 1   
     6     3     5 ar  
     7     3    29 1   
     8     4     6 ar  
     9     4    30 1   
    10     5     6 ar  
    11     5    31 1   
    12     6     7 1   
    13     7     8 1   
    14     7    17 1   
    15     8     9 2   
    16     8    10 2   
    17     8    11 1   
    18    11    12 ar  
    19    11    13 ar  
    20    12    15 ar  
    21    12    32 1   
    22    13    14 ar  
    23    13    33 1   
    24    14    16 ar  
    25    14    34 1   
    26    15    16 ar  
    27    15    35 1   
    28    16    36 1   
    29    17    37 1   
    30    17    38 1   
    31    17    39 1   
    32    18    19 1   
    33    18    20 1   
    34    18    27 1   
    35    19    21 1   
    36    19    22 1   
    37    19    23 1   
    38    20    24 1   
    39    20    25 1   
    40    20    26 1   
    41    27    40 1   
@<TRIPOS>SUBSTRUCTURE
     1 0KS         1 TEMP              0 ****  ****    0 ROOT
