@<TRIPOS>MOLECULE
0KS
   40    41     1     0     0
SMALL
abcg2


@<TRIPOS>ATOM
      1 C1          -2.0620     0.0410     0.2010 ca         1 0KS      -0.145300
      2 C2          -1.2570     1.1750     0.1300 ca         1 0KS      -0.069000
      3 C3          -1.4590    -1.1920     0.4390 ca         1 0KS      -0.069000
      4 C4           0.1120     1.0860     0.3220 ca         1 0KS      -0.095500
      5 C5          -0.0890    -1.2830     0.6220 ca         1 0KS      -0.095500
      6 C6           0.7020    -0.1420     0.5730 ca         1 0KS       0.265000
      7 N1           2.1100    -0.2000     0.7950 nh         1 0KS      -0.759300
      8 S2           3.0280    -0.4830    -0.5720 sy         1 0KS       1.142600
      9 O4           3.3060    -1.9040    -0.7320 o          1 0KS      -0.532500
     10 O5           2.3710     0.2210    -1.6600 o          1 0KS      -0.532500
     11 C8           4.5350     0.3420    -0.1580 ca         1 0KS      -0.274500
     12 C9           5.7080    -0.3860    -0.0320 ca         1 0KS      -0.010500
     13 C10          4.5100     1.7230    -0.0010 ca         1 0KS      -0.010500
     14 C11          5.6910     2.3830     0.2950 ca         1 0KS      -0.131000
     15 C12          6.8850     0.2890     0.2630 ca         1 0KS      -0.131000
     16 C13          6.8760     1.6670     0.4260 ca         1 0KS      -0.054000
     17 C7           2.5630    -0.8770     2.0080 c3         1 0KS       0.184100
     18 C18         -3.5620     0.2060    -0.0310 c3         1 0KS       0.107300
     19 C19         -3.8630    -0.1080    -1.5140 c3         1 0KS       0.305000
     20 C20         -4.4070    -0.6780     0.9280 c3         1 0KS       0.305000
     21 F5          -3.4950    -1.3450    -1.8420 f          1 0KS      -0.096833
     22 F4          -5.1570     0.0220    -1.8050 f          1 0KS      -0.096833
     23 F6          -3.1910     0.7340    -2.2950 f          1 0KS      -0.096833
     24 F7          -5.6930    -0.3460     0.8830 f          1 0KS      -0.096833
     25 F9          -4.3320    -1.9850     0.6670 f          1 0KS      -0.096833
     26 F8          -3.9900    -0.4900     2.1820 f          1 0KS      -0.096833
     27 O1          -3.9940     1.5160     0.1330 oh         1 0KS      -0.620000
     28 H1          -1.6780     2.1490    -0.0770 ha         1 0KS       0.133500
     29 H2          -2.0280    -2.1090     0.4810 ha         1 0KS       0.133500
     30 H3           0.7220     1.9780     0.2830 ha         1 0KS       0.132500
     31 H4           0.3510    -2.2530     0.8090 ha         1 0KS       0.132500
     32 H5           5.7140    -1.4600    -0.1560 ha         1 0KS       0.136000
     33 H6           3.5880     2.2810    -0.1010 ha         1 0KS       0.136000
     34 H7           5.6860     3.4570     0.4220 ha         1 0KS       0.121000
     35 H8           7.8070    -0.2660     0.3660 ha         1 0KS       0.121000
     36 H9           7.7950     2.1880     0.6590 ha         1 0KS       0.118000
     37 H10          2.3840    -1.9530     2.0010 h1         1 0KS       0.053033
     38 H11          3.6290    -0.7040     2.1510 h1         1 0KS       0.053033
     39 H12          2.0420    -0.4350     2.8530 h1         1 0KS       0.053033
     40 H13         -3.6520     1.8850     0.9570 ho         1 0KS       0.479000
@<TRIPOS>BOND
     1     1     2 ar  
     2     1     3 ar  
     3     1    18 1   
     4     2     4 ar  
     5     2    28 1   
     6     3     5 ar  
     7     3    29 1   
     8     4     6 ar  
     9     4    30 1   
    10     5     6 ar  
    11     5    31 1   
    12     6     7 1   
    13     7     8 1   
    14     7    17 1   
    15     8     9 2   
    16     8    10 2   
    17     8    11 1   
    18    11    12 ar  
    19    11    13 ar  
    20    12    15 ar  
    21    12    32 1   
    22    13    14 ar  
    23    13    33 1   
    24    14    16 ar  
    25    14    34 1   
    26    15    16 ar  
    27    15    35 1   
    28    16    36 1   
    29    17    37 1   
    30    17    38 1   
    31    17    39 1   
    32    18    19 1   
    33    18    20 1   
    34    18    27 1   
    35    19    21 1   
    36    19    22 1   
    37    19    23 1   
    38    20    24 1   
    39    20    25 1   
    40    20    26 1   
    41    27    40 1   
@<TRIPOS>SUBSTRUCTURE
     1 0KS         1 TEMP              0 ****  ****    0 ROOT
