@<TRIPOS>MOLECULE
0KT
   55    57     1     0     0
SMALL
No Charge or Current Charge


@<TRIPOS>ATOM
      1 C1          -1.5440     0.3580     0.4830 ca         1 0KT      -0.146300
      2 C2          -0.9130     0.7660    -0.7150 ca         1 0KT      -0.074000
      3 C3          -0.7460    -0.2290     1.4930 ca         1 0KT      -0.074000
      4 C4           0.4640     0.5660    -0.9060 ca         1 0KT      -0.098500
      5 C5           0.6320    -0.4240     1.2950 ca         1 0KT      -0.098500
      6 C6           1.2490    -0.0290     0.0970 ca         1 0KT       0.253000
      7 N1           2.6250    -0.2390    -0.0970 nh         1 0KT      -0.750300
      8 S2           3.6450     0.9170     0.6340 sy         1 0KT       1.138600
      9 O4           3.4970     2.1600    -0.1300 o          1 0KT      -0.532500
     10 O5           3.3820     0.8630     2.0770 o          1 0KT      -0.532500
     11 C8           5.2700     0.2020     0.3120 ca         1 0KT      -0.274500
     12 C9           5.7360    -0.8610     1.1120 ca         1 0KT      -0.010500
     13 C10          6.0730     0.6940    -0.7390 ca         1 0KT      -0.010500
     14 C11          7.3340     0.1220    -0.9830 ca         1 0KT      -0.131000
     15 C12          6.9980    -1.4270     0.8620 ca         1 0KT      -0.131000
     16 C13          7.7980    -0.9370    -0.1840 ca         1 0KT      -0.055000
     17 C7           3.1050    -0.8960    -1.3290 c3         1 0KT       0.179100
     18 C18         -3.0600     0.5850     0.6840 c3         1 0KT       0.255600
     19 C19         -3.8180     0.4360    -0.6420 cc         1 0KT      -0.204300
     20 C20         -3.2710     1.9930     1.3730 c3         1 0KT       0.316000
     21 F7          -4.5800     2.2370     1.6310 f          1 0KT      -0.104667
     22 F9          -2.6120     2.0660     2.5550 f          1 0KT      -0.104667
     23 F8          -2.8090     3.0020     0.5950 f          1 0KT      -0.104667
     24 O1          -3.5730    -0.4300     1.5630 oh         1 0KT      -0.641000
     25 C14         -4.6010     1.3570    -1.2990 cd         1 0KT      -0.136000
     26 N2          -3.8220    -0.7040    -1.4810 na         1 0KT       0.031000
     27 C16         -4.5990    -0.4660    -2.6180 cc         1 0KT      -0.185000
     28 C17         -5.0760     0.8050    -2.4990 cd         1 0KT      -0.181000
     29 C15         -3.1320    -1.9870    -1.2450 c3         1 0KT       0.060600
     30 C21         -4.0810    -3.0850    -0.7320 c3         1 0KT       0.130600
     31 O2          -3.2890    -4.2460    -0.4280 os         1 0KT      -0.460000
     32 C23         -4.0400    -5.3700     0.0640 c3         1 0KT       0.146900
     33 H1          -1.4870     1.2430    -1.5080 ha         1 0KT       0.133500
     34 H2          -1.1820    -0.5340     2.4420 ha         1 0KT       0.133500
     35 H3           0.9270     0.8870    -1.8350 ha         1 0KT       0.130500
     36 H4           1.2270    -0.8870     2.0760 ha         1 0KT       0.130500
     37 H5           5.1220    -1.2520     1.9220 ha         1 0KT       0.136000
     38 H6           5.7270     1.5120    -1.3680 ha         1 0KT       0.136000
     39 H7           7.9530     0.5010    -1.7940 ha         1 0KT       0.120500
     40 H8           7.3550    -2.2490     1.4790 ha         1 0KT       0.120500
     41 H9           8.7740    -1.3780    -0.3770 ha         1 0KT       0.117000
     42 H10          3.4960    -0.1590    -2.0430 h1         1 0KT       0.053033
     43 H11          3.8940    -1.6230    -1.0980 h1         1 0KT       0.053033
     44 H12          2.2880    -1.4450    -1.8160 h1         1 0KT       0.053033
     45 H13         -3.2290    -1.2810     1.2300 ho         1 0KT       0.463000
     46 H14         -4.8250     2.3640    -0.9610 ha         1 0KT       0.144000
     47 H15         -4.7410    -1.2060    -3.3970 h4         1 0KT       0.145000
     48 H16         -5.7160     1.3090    -3.2180 ha         1 0KT       0.138000
     49 H17         -2.6890    -2.3160    -2.1930 h1         1 0KT       0.069200
     50 H18         -2.3110    -1.8510    -0.5350 h1         1 0KT       0.069200
     51 H19         -4.6080    -2.7300     0.1640 h1         1 0KT       0.041200
     52 H20         -4.8290    -3.3120    -1.5040 h1         1 0KT       0.041200
     53 H21         -4.5660    -5.1120     0.9930 h1         1 0KT       0.033700
     54 H22         -4.7820    -5.6970    -0.6760 h1         1 0KT       0.033700
     55 H23         -3.3710    -6.2140     0.2730 h1         1 0KT       0.033700
@<TRIPOS>BOND
     1     1     2 ar  
     2     1     3 ar  
     3     1    18 1   
     4     2     4 ar  
     5     2    33 1   
     6     3     5 ar  
     7     3    34 1   
     8     4     6 ar  
     9     4    35 1   
    10     5     6 ar  
    11     5    36 1   
    12     6     7 1   
    13     7     8 1   
    14     7    17 1   
    15     8     9 2   
    16     8    10 2   
    17     8    11 1   
    18    11    12 ar  
    19    11    13 ar  
    20    12    15 ar  
    21    12    37 1   
    22    13    14 ar  
    23    13    38 1   
    24    14    16 ar  
    25    14    39 1   
    26    15    16 ar  
    27    15    40 1   
    28    16    41 1   
    29    17    42 1   
    30    17    43 1   
    31    17    44 1   
    32    18    19 1   
    33    18    20 1   
    34    18    24 1   
    35    19    25 2   
    36    19    26 1   
    37    20    21 1   
    38    20    22 1   
    39    20    23 1   
    40    24    45 1   
    41    25    28 1   
    42    25    46 1   
    43    26    27 1   
    44    26    29 1   
    45    27    28 2   
    46    27    47 1   
    47    28    48 1   
    48    29    30 1   
    49    29    49 1   
    50    29    50 1   
    51    30    31 1   
    52    30    51 1   
    53    30    52 1   
    54    31    32 1   
    55    32    53 1   
    56    32    54 1   
    57    32    55 1   
@<TRIPOS>SUBSTRUCTURE
     1 0KT         1 TEMP              0 ****  ****    0 ROOT
