@<TRIPOS>MOLECULE
0KT
   55    57     1     0     0
SMALL
abcg2


@<TRIPOS>ATOM
      1 C1          -1.3920     0.2110     0.3710 ca         1 0KT      -0.146300
      2 C2          -0.9040     0.7350    -0.8220 ca         1 0KT      -0.074000
      3 C3          -0.4990    -0.3900     1.2550 ca         1 0KT      -0.074000
      4 C4           0.4440     0.6550    -1.1310 ca         1 0KT      -0.098500
      5 C5           0.8470    -0.4880     0.9400 ca         1 0KT      -0.098500
      6 C6           1.3250     0.0350    -0.2530 ca         1 0KT       0.253000
      7 N1           2.7090    -0.1040    -0.5640 nh         1 0KT      -0.750300
      8 S2           3.6840     1.1270     0.0150 sy         1 0KT       1.138600
      9 O4           3.8350     2.1820    -0.9800 o          1 0KT      -0.532500
     10 O5           3.1730     1.4830     1.3270 o          1 0KT      -0.532500
     11 C8           5.2320     0.2940     0.1920 ca         1 0KT      -0.274500
     12 C9           5.3260    -0.7320     1.1250 ca         1 0KT      -0.010500
     13 C10          6.3210     0.6890    -0.5700 ca         1 0KT      -0.010500
     14 C11          7.5320     0.0340    -0.3940 ca         1 0KT      -0.131000
     15 C12          6.5390    -1.3780     1.2880 ca         1 0KT      -0.131000
     16 C13          7.6410    -0.9960     0.5300 ca         1 0KT      -0.055000
     17 C7           3.0450    -0.5730    -1.9060 c3         1 0KT       0.179100
     18 C18         -2.8790     0.3160     0.7100 c3         1 0KT       0.255600
     19 C19         -3.7340     0.3330    -0.5320 cc         1 0KT      -0.204300
     20 C20         -3.0670     1.6150     1.5180 c3         1 0KT       0.316000
     21 F7          -4.3370     1.7940     1.8890 f          1 0KT      -0.104667
     22 F9          -2.3370     1.5840     2.6350 f          1 0KT      -0.104667
     23 F8          -2.6860     2.6940     0.8300 f          1 0KT      -0.104667
     24 O1          -3.3020    -0.6820     1.6090 oh         1 0KT      -0.641000
     25 C14         -4.5270     1.3180    -1.0760 cd         1 0KT      -0.136000
     26 N2          -3.7730    -0.7450    -1.3860 na         1 0KT       0.031000
     27 C16         -4.5830    -0.4510    -2.4400 cc         1 0KT      -0.185000
     28 C17         -5.0620     0.8210    -2.2870 cd         1 0KT      -0.181000
     29 C15         -3.1850    -2.0570    -1.2170 c3         1 0KT       0.060600
     30 C21         -4.1720    -3.0410    -0.6030 c3         1 0KT       0.130600
     31 O2          -3.4950    -4.2510    -0.3990 os         1 0KT      -0.460000
     32 C23         -4.3300    -5.2550     0.1240 c3         1 0KT       0.146900
     33 H1          -1.5740     1.2100    -1.5260 ha         1 0KT       0.133500
     34 H2          -0.8320    -0.7970     2.2000 ha         1 0KT       0.133500
     35 H3           0.7950     1.0700    -2.0660 ha         1 0KT       0.130500
     36 H4           1.5260    -0.9820     1.6220 ha         1 0KT       0.130500
     37 H5           4.4680    -1.0320     1.7140 ha         1 0KT       0.136000
     38 H6           6.2360     1.4900    -1.2900 ha         1 0KT       0.136000
     39 H7           8.3890     0.3280    -0.9850 ha         1 0KT       0.120500
     40 H8           6.6250    -2.1810     2.0080 ha         1 0KT       0.120500
     41 H9           8.5860    -1.5060     0.6600 ha         1 0KT       0.117000
     42 H10          2.8660     0.1680    -2.6880 h1         1 0KT       0.053033
     43 H11          4.0930    -0.8690    -1.9420 h1         1 0KT       0.053033
     44 H12          2.4480    -1.4570    -2.1130 h1         1 0KT       0.053033
     45 H13         -2.7800    -1.4830     1.4920 ho         1 0KT       0.463000
     46 H14         -4.7050     2.3040    -0.6810 ha         1 0KT       0.144000
     47 H15         -4.7510    -1.1770    -3.2200 h4         1 0KT       0.145000
     48 H16         -5.7190     1.3420    -2.9650 ha         1 0KT       0.138000
     49 H17         -2.8690    -2.4130    -2.1970 h1         1 0KT       0.069200
     50 H18         -2.2760    -1.9920    -0.6190 h1         1 0KT       0.069200
     51 H19         -4.5750    -2.6430     0.3380 h1         1 0KT       0.041200
     52 H20         -5.0270    -3.1710    -1.2810 h1         1 0KT       0.041200
     53 H21         -4.7450    -4.9750     1.0990 h1         1 0KT       0.033700
     54 H22         -5.1670    -5.4820    -0.5460 h1         1 0KT       0.033700
     55 H23         -3.7320    -6.1570     0.2490 h1         1 0KT       0.033700
@<TRIPOS>BOND
     1     1     2 ar  
     2     1     3 ar  
     3     1    18 1   
     4     2     4 ar  
     5     2    33 1   
     6     3     5 ar  
     7     3    34 1   
     8     4     6 ar  
     9     4    35 1   
    10     5     6 ar  
    11     5    36 1   
    12     6     7 1   
    13     7     8 1   
    14     7    17 1   
    15     8     9 2   
    16     8    10 2   
    17     8    11 1   
    18    11    12 ar  
    19    11    13 ar  
    20    12    15 ar  
    21    12    37 1   
    22    13    14 ar  
    23    13    38 1   
    24    14    16 ar  
    25    14    39 1   
    26    15    16 ar  
    27    15    40 1   
    28    16    41 1   
    29    17    42 1   
    30    17    43 1   
    31    17    44 1   
    32    18    19 1   
    33    18    20 1   
    34    18    24 1   
    35    19    25 2   
    36    19    26 1   
    37    20    21 1   
    38    20    22 1   
    39    20    23 1   
    40    24    45 1   
    41    25    28 1   
    42    25    46 1   
    43    26    27 1   
    44    26    29 1   
    45    27    28 2   
    46    27    47 1   
    47    28    48 1   
    48    29    30 1   
    49    29    49 1   
    50    29    50 1   
    51    30    31 1   
    52    30    51 1   
    53    30    52 1   
    54    31    32 1   
    55    32    53 1   
    56    32    54 1   
    57    32    55 1   
@<TRIPOS>SUBSTRUCTURE
     1 0KT         1 TEMP              0 ****  ****    0 ROOT
