@<TRIPOS>MOLECULE
0KU
   51    53     1     0     0
SMALL
No Charge or Current Charge


@<TRIPOS>ATOM
      1 C01         -7.1290    -0.8580    -0.2180 ca         1 0KU       0.095000
      2 C02         -6.6520    -0.2060    -1.3650 ca         1 0KU      -0.077000
      3 C03         -5.2820     0.0900    -1.4870 ca         1 0KU      -0.137500
      4 C04         -4.3770    -0.2630    -0.4660 ca         1 0KU      -0.023000
      5 C05         -4.8680    -0.9200     0.6860 ca         1 0KU      -0.137500
      6 C06         -6.2380    -1.2150     0.8060 ca         1 0KU      -0.077000
      7 Cl1         -8.8420    -1.2290    -0.0640 cl         1 0KU      -0.201000
      8 N08         -3.0060     0.0680    -0.6580 ns         1 0KU      -0.119000
      9 C09         -1.8740    -0.1300     0.1270 c          1 0KU       0.524100
     10 C10         -0.5400     0.4400    -0.5500 c          1 0KU       0.523100
     11 N11          0.6110     0.2690     0.2030 ns         1 0KU      -0.462900
     12 O12         -0.5260     0.9860    -1.6520 o          1 0KU      -0.608100
     13 O13         -1.8660    -0.6830     1.2290 o          1 0KU      -0.575100
     14 C14          1.9700     0.7020    -0.1950 c3         1 0KU       0.088400
     15 C15          2.3720     2.0820     0.4290 c6         1 0KU       0.151500
     16 C16          2.9960    -0.3750     0.0980 cc         1 0KU       0.410700
     17 C17          1.3030     3.1980     0.2370 c6         1 0KU      -0.109400
     18 C18          1.7730     4.5380     0.8550 c6         1 0KU      -0.074400
     19 C19          3.1680     4.9310     0.3130 c6         1 0KU      -0.115400
     20 C20          4.1780     3.7750     0.4980 c6         1 0KU       0.153800
     21 N21          3.6700     2.5370    -0.1380 n7         1 0KU      -0.846400
     22 N22          2.9920    -1.1010     1.2140 nd         1 0KU      -0.647000
     23 C23          4.0280    -2.0210     1.1770 cd         1 0KU       0.305300
     24 C24          4.7950    -1.9890     0.0340 cc         1 0KU      -0.243300
     25 S25          4.2270    -0.7710    -1.0740 ss         1 0KU       0.043600
     26 C26          4.2280    -2.9470     2.3450 c3         1 0KU      -0.119400
     27 C27          5.9800    -2.8430    -0.3040 c3         1 0KU       0.239900
     28 O28          5.5400    -4.0640    -0.9000 oh         1 0KU      -0.657000
     29 H1          -7.3430     0.0700    -2.1580 ha         1 0KU       0.131500
     30 H2          -4.9260     0.5970    -2.3820 ha         1 0KU       0.135000
     31 H3          -4.2090    -1.2110     1.4980 ha         1 0KU       0.135000
     32 H4          -6.6100    -1.7210     1.6940 ha         1 0KU       0.131500
     33 H5          -2.8160     0.5400    -1.5340 hn         1 0KU       0.184000
     34 H6           0.5040    -0.2210     1.0870 hn         1 0KU       0.359500
     35 H7           1.9650     0.8390    -1.2840 h1         1 0KU       0.086700
     36 H8           2.4970     1.9180     1.5120 h1         1 0KU       0.079700
     37 H9           1.0950     3.3360    -0.8330 hc         1 0KU       0.049700
     38 H10          0.3540     2.9070     0.7060 hc         1 0KU       0.049700
     39 H12          1.0460     5.3320     0.6360 hc         1 0KU       0.044200
     40 H11          1.8160     4.4450     1.9490 hc         1 0KU       0.044200
     41 H13          3.0940     5.1890    -0.7530 hc         1 0KU       0.045200
     42 H14          3.5320     5.8290     0.8280 hc         1 0KU       0.045200
     43 H16          5.1440     4.0530     0.0510 h1         1 0KU       0.055200
     44 H15          4.3480     3.5980     1.5710 h1         1 0KU       0.055200
     45 H17          3.5410     2.7300    -1.1380 hn         1 0KU       0.402000
     46 H21          5.1740    -2.7310     2.8540 hc         1 0KU       0.049367
     47 H19          3.4210    -2.8510     3.0800 hc         1 0KU       0.049367
     48 H20          4.2540    -3.9920     2.0130 hc         1 0KU       0.049367
     49 H23          6.6370    -2.2950    -0.9930 h1         1 0KU       0.034700
     50 H22          6.5550    -3.0460     0.6100 h1         1 0KU       0.034700
     51 H24          6.3490    -4.5800    -1.1140 ho         1 0KU       0.447000
@<TRIPOS>BOND
     1     1     2 ar  
     2     1     6 ar  
     3     1     7 1   
     4     2     3 ar  
     5     2    29 1   
     6     3     4 ar  
     7     3    30 1   
     8     4     5 ar  
     9     4     8 1   
    10     5     6 ar  
    11     5    31 1   
    12     6    32 1   
    13     8     9 1   
    14     8    33 1   
    15     9    10 1   
    16     9    13 2   
    17    10    11 1   
    18    10    12 2   
    19    11    14 1   
    20    11    34 1   
    21    14    15 1   
    22    14    16 1   
    23    14    35 1   
    24    15    17 1   
    25    15    21 1   
    26    15    36 1   
    27    16    22 2   
    28    16    25 1   
    29    17    18 1   
    30    17    37 1   
    31    17    38 1   
    32    18    19 1   
    33    18    39 1   
    34    18    40 1   
    35    19    20 1   
    36    19    41 1   
    37    19    42 1   
    38    20    21 1   
    39    20    43 1   
    40    20    44 1   
    41    21    45 1   
    42    22    23 1   
    43    23    24 2   
    44    23    26 1   
    45    24    25 1   
    46    24    27 1   
    47    26    46 1   
    48    26    47 1   
    49    26    48 1   
    50    27    28 1   
    51    27    49 1   
    52    27    50 1   
    53    28    51 1   
@<TRIPOS>SUBSTRUCTURE
     1 0KU         1 TEMP              0 ****  ****    0 ROOT
