@<TRIPOS>MOLECULE
0KU
   51    53     1     0     0
SMALL
bcc


@<TRIPOS>ATOM
      1 C01         -6.8590    -1.0980    -0.1240 ca         1 0KU       0.003400
      2 C02         -6.3770    -0.8580    -1.4010 ca         1 0KU      -0.095000
      3 C03         -5.0490    -0.5120    -1.5690 ca         1 0KU      -0.155500
      4 C04         -4.1920    -0.4020    -0.4730 ca         1 0KU       0.069600
      5 C05         -4.6910    -0.6450     0.8070 ca         1 0KU      -0.155500
      6 C06         -6.0240    -0.9920     0.9740 ca         1 0KU      -0.095000
      7 CL1         -8.5220    -1.5300     0.0980 cl         1 0KU      -0.109400
      8 N08         -2.8700    -0.0420    -0.7420 ns         1 0KU      -0.445100
      9 C09         -1.8240     0.0260     0.0930 c          1 0KU       0.591100
     10 C10         -0.5390     0.4530    -0.6400 c          1 0KU       0.590100
     11 N11          0.5170     0.5070     0.1670 ns         1 0KU      -0.529900
     12 O12         -0.5500     0.7070    -1.8330 o          1 0KU      -0.608100
     13 O13         -1.8240    -0.2070     1.2870 o          1 0KU      -0.575100
     14 C14          1.8470     0.8730    -0.2580 c3         1 0KU       0.088400
     15 C15          2.3180     2.1490     0.4590 c6         1 0KU       0.151500
     16 C16          2.7880    -0.2670     0.0130 cc         1 0KU       0.410700
     17 C17          1.4100     3.3450     0.1730 c6         1 0KU      -0.109400
     18 C18          1.9490     4.5930     0.8700 c6         1 0KU      -0.074400
     19 C19          3.4120     4.8330     0.5130 c6         1 0KU      -0.115400
     20 C20          4.2360     3.5750     0.7700 c6         1 0KU       0.153800
     21 N21          3.7070     2.3890     0.1110 n7         1 0KU      -0.791200
     22 N22          2.8690    -0.8570     1.1580 nd         1 0KU      -0.647000
     23 C23          3.7960    -1.8690     1.1450 cd         1 0KU       0.370600
     24 C24          4.4300    -2.0440    -0.0490 cc         1 0KU      -0.163700
     25 S25          3.8310    -0.9020    -1.1930 ss         1 0KU      -0.101300
     26 C26          4.0230    -2.6540     2.3930 c3         1 0KU      -0.119400
     27 C27          5.5060    -2.9920    -0.4480 c3         1 0KU       0.216700
     28 O28          5.2110    -3.4740    -1.7390 oh         1 0KU      -0.594800
     29 H1          -7.0240    -0.9410    -2.2630 ha         1 0KU       0.149500
     30 H2          -4.6760    -0.3260    -2.5690 ha         1 0KU       0.153000
     31 H3          -4.0630    -0.5660     1.6790 ha         1 0KU       0.153000
     32 H4          -6.4010    -1.1770     1.9710 ha         1 0KU       0.149500
     33 H5          -2.6570     0.1750    -1.7080 hn         1 0KU       0.350500
     34 H6           0.3870     0.2450     1.1350 hn         1 0KU       0.359500
     35 H7           1.8090     1.0670    -1.3330 h1         1 0KU       0.086700
     36 H8           2.2910     1.9460     1.5380 h1         1 0KU       0.079700
     37 H9           1.3680     3.5120    -0.9090 hc         1 0KU       0.049700
     38 H10          0.3890     3.1450     0.5050 hc         1 0KU       0.049700
     39 H12          1.3410     5.4600     0.6070 hc         1 0KU       0.044200
     40 H11          1.8560     4.4650     1.9540 hc         1 0KU       0.044200
     41 H13          3.4940     5.1080    -0.5440 hc         1 0KU       0.045200
     42 H14          3.8170     5.6700     1.0870 hc         1 0KU       0.045200
     43 H16          5.2690     3.7170     0.4470 h1         1 0KU       0.055200
     44 H15          4.2680     3.3750     1.8460 h1         1 0KU       0.055200
     45 H17          3.7840     2.5130    -0.8940 hn         1 0KU       0.346800
     46 H21          4.5180    -2.0460     3.1530 hc         1 0KU       0.049367
     47 H19          3.0750    -2.9910     2.8130 hc         1 0KU       0.049367
     48 H20          4.6450    -3.5280     2.2160 hc         1 0KU       0.049367
     49 H23          6.4740    -2.4750    -0.4310 h1         1 0KU       0.034700
     50 H22          5.5690    -3.7970     0.2930 h1         1 0KU       0.034700
     51 H24          5.9930    -3.9220    -2.0750 ho         1 0KU       0.408000
@<TRIPOS>BOND
     1     1     2 ar  
     2     1     6 ar  
     3     1     7 1   
     4     2     3 ar  
     5     2    29 1   
     6     3     4 ar  
     7     3    30 1   
     8     4     5 ar  
     9     4     8 1   
    10     5     6 ar  
    11     5    31 1   
    12     6    32 1   
    13     8     9 1   
    14     8    33 1   
    15     9    10 1   
    16     9    13 2   
    17    10    11 1   
    18    10    12 2   
    19    11    14 1   
    20    11    34 1   
    21    14    15 1   
    22    14    16 1   
    23    14    35 1   
    24    15    17 1   
    25    15    21 1   
    26    15    36 1   
    27    16    22 2   
    28    16    25 1   
    29    17    18 1   
    30    17    37 1   
    31    17    38 1   
    32    18    19 1   
    33    18    39 1   
    34    18    40 1   
    35    19    20 1   
    36    19    41 1   
    37    19    42 1   
    38    20    21 1   
    39    20    43 1   
    40    20    44 1   
    41    21    45 1   
    42    22    23 1   
    43    23    24 2   
    44    23    26 1   
    45    24    25 1   
    46    24    27 1   
    47    26    46 1   
    48    26    47 1   
    49    26    48 1   
    50    27    28 1   
    51    27    49 1   
    52    27    50 1   
    53    28    51 1   
@<TRIPOS>SUBSTRUCTURE
     1 0KU         1 TEMP              0 ****  ****    0 ROOT
