@<TRIPOS>MOLECULE
0KV
   69    71     1     0     0
SMALL
abcg2


@<TRIPOS>ATOM
      1 C7           4.4760    -0.4920    -0.5970 c3         1 0KV      -0.263100
      2 C8           5.7070    -1.2550    -0.2230 ca         1 0KV      -0.077300
      3 C9           5.7490    -1.9740     0.9690 ca         1 0KV      -0.084000
      4 C10          6.8900    -2.6790     1.3250 ca         1 0KV      -0.112000
      5 C11          8.0040    -2.6640     0.4950 ca         1 0KV      -0.102000
      6 C12          7.9700    -1.9440    -0.6920 ca         1 0KV      -0.112000
      7 C13          6.8290    -1.2400    -1.0480 ca         1 0KV      -0.084000
      8 S            4.5920     1.1870     0.0440 s6         1 0KV       1.203100
      9 O1S          4.5550     1.1120     1.4990 o          1 0KV      -0.534500
     10 O2S          5.7300     1.8180    -0.6080 o          1 0KV      -0.534500
     11 N1           3.2670     2.0210    -0.4310 n7         1 0KV      -0.911300
     12 C1           0.9890     1.1020    -0.3660 c          1 0KV       0.545000
     13 O1           1.3560     0.0300    -0.8290 o          1 0KV      -0.582000
     14 CA1          2.0090     2.0420     0.2820 c6         1 0KV       0.171500
     15 CB1          1.5030     3.4670     0.4440 c6         1 0KV      -0.077400
     16 CD1         -0.8480     2.7020     0.1870 c6         1 0KV       0.111000
     17 CG1          0.1340     3.4100     1.0940 c6         1 0KV      -0.095400
     18 C2          -1.6400    -0.5130     0.0410 c          1 0KV       0.607100
     19 N2          -0.2970     1.4850    -0.3980 n          1 0KV      -0.376800
     20 O2          -1.3690    -0.4280     1.2260 o          1 0KV      -0.599100
     21 CA2         -1.2530     0.5670    -0.9570 c3         1 0KV       0.008000
     22 C3          -2.2220    -3.8890     0.1010 c          1 0KV       0.555900
     23 N3          -2.3410    -1.5250    -0.4990 ns         1 0KV      -0.491900
     24 C4          -6.6840    -1.9140     0.7230 c6         1 0KV      -0.074400
     25 C5          -7.5810    -0.6970     0.9210 c6         1 0KV      -0.107400
     26 C6          -7.6030     0.1660    -0.3350 c6         1 0KV       0.211800
     27 CA3         -2.9470    -2.5760     0.2660 c3         1 0KV      -0.012300
     28 CB3         -4.4370    -2.7610    -0.0420 c3         1 0KV      -0.077400
     29 CD3         -5.4190    -0.6170    -0.9870 c6         1 0KV       0.220800
     30 NE3         -6.2550     0.5410    -0.7370 nh         1 0KV      -0.744600
     31 CG3         -5.2860    -1.5170     0.2450 c6         1 0KV      -0.091700
     32 NH1         -6.5200     2.7170     0.0420 nv         1 0KV      -1.055200
     33 NH2         -4.3760     1.7490    -0.1460 n2         1 0KV      -0.913100
     34 H7           4.3500    -0.4040    -1.6770 h1         1 0KV       0.109200
     35 H7A          3.5700    -0.9250    -0.1790 h1         1 0KV       0.109200
     36 H9           4.8800    -1.9900     1.6150 ha         1 0KV       0.120000
     37 H10          6.9080    -3.2400     2.2490 ha         1 0KV       0.113500
     38 H11          8.8920    -3.2170     0.7700 ha         1 0KV       0.111000
     39 H12          8.8350    -1.9300    -1.3430 ha         1 0KV       0.113500
     40 H13          6.8080    -0.6820    -1.9760 ha         1 0KV       0.120000
     41 HA1          2.1870     1.6390     1.2830 h1         1 0KV       0.106700
     42 HN1          3.2490     2.2570    -1.4150 hn         1 0KV       0.496000
     43 HB1          2.2100     4.0300     1.0520 hc         1 0KV       0.059200
     44 HB1A         1.4430     3.9630    -0.5300 hc         1 0KV       0.059200
     45 HG1          0.2050     2.8850     2.0510 hc         1 0KV       0.061200
     46 HG1A        -0.2440     4.4090     1.3070 hc         1 0KV       0.061200
     47 HD1         -1.1610     3.3670    -0.6240 h1         1 0KV       0.050200
     48 HD1A        -1.7470     2.4310     0.7420 h1         1 0KV       0.050200
     49 HA2         -0.8820     0.1270    -1.8840 h1         1 0KV       0.083700
     50 HA2A        -2.1680     1.1140    -1.1970 h1         1 0KV       0.083700
     51 HN3         -2.4570    -1.5510    -1.5000 hn         1 0KV       0.316500
     52 H4A         -6.6130    -2.4840     1.6530 hc         1 0KV       0.041200
     53 H5A         -8.5990    -1.0100     1.1670 hc         1 0KV       0.053200
     54 H6A         -8.0510    -0.4000    -1.1570 h1         1 0KV       0.052700
     55 HA3         -2.8620    -2.3170     1.3270 h1         1 0KV       0.104700
     56 HB3         -4.5680    -3.0800    -1.0820 hc         1 0KV       0.046700
     57 HB3A        -4.7930    -3.5950     0.5710 hc         1 0KV       0.046700
     58 HD3         -5.8820    -1.1940    -1.7960 h1         1 0KV       0.058200
     59 HD3A        -4.4490    -0.2760    -1.3370 h1         1 0KV       0.058200
     60 HG3         -4.8020    -0.9310     1.0360 hc         1 0KV       0.077700
     61 HNH1        -7.3340     2.8170    -0.5440 hn         1 0KV       0.451500
     62 HNHA        -6.0650     3.6050     0.1810 hn         1 0KV       0.451500
     63 HNH2        -4.0890     2.6910     0.0940 hn         1 0KV       0.373400
     64 H3          -2.6760    -4.7230     0.6660 h4         1 0KV      -0.013800
     65 H4          -7.1390    -2.5830    -0.0180 hc         1 0KV       0.041200
     66 H5          -7.2190    -0.1000     1.7630 hc         1 0KV       0.053200
     67 H6          -8.2330     1.0400    -0.1880 h1         1 0KV       0.052700
     68 O3          -1.2370    -4.0500    -0.5710 o          1 0KV      -0.491100
     69 CZ3         -5.6530     1.6880    -0.2740 c2         1 0KV       0.800100
@<TRIPOS>BOND
     1     1     2 1   
     2     1     8 1   
     3     1    34 1   
     4     1    35 1   
     5     2     3 ar  
     6     2     7 ar  
     7     3     4 ar  
     8     3    36 1   
     9     4     5 ar  
    10     4    37 1   
    11     5     6 ar  
    12     5    38 1   
    13     6     7 ar  
    14     6    39 1   
    15     7    40 1   
    16     8     9 2   
    17     8    10 2   
    18     8    11 1   
    19    11    14 1   
    20    11    42 1   
    21    12    13 2   
    22    12    14 1   
    23    12    19 1   
    24    14    15 1   
    25    14    41 1   
    26    15    17 1   
    27    15    43 1   
    28    15    44 1   
    29    16    17 1   
    30    16    19 1   
    31    16    47 1   
    32    16    48 1   
    33    17    45 1   
    34    17    46 1   
    35    18    20 2   
    36    18    21 1   
    37    18    23 1   
    38    19    21 1   
    39    21    49 1   
    40    21    50 1   
    41    22    27 1   
    42    22    64 1   
    43    22    68 2   
    44    23    27 1   
    45    23    51 1   
    46    24    25 1   
    47    24    31 1   
    48    24    52 1   
    49    24    65 1   
    50    25    26 1   
    51    25    53 1   
    52    25    66 1   
    53    26    30 1   
    54    26    54 1   
    55    26    67 1   
    56    27    28 1   
    57    27    55 1   
    58    28    31 1   
    59    28    56 1   
    60    28    57 1   
    61    29    30 1   
    62    29    31 1   
    63    29    58 1   
    64    29    59 1   
    65    30    69 1   
    66    31    60 1   
    67    32    61 1   
    68    32    62 1   
    69    32    69 1   
    70    33    63 1   
    71    33    69 2   
@<TRIPOS>SUBSTRUCTURE
     1 0KV         1 TEMP              0 ****  ****    0 ROOT
