@<TRIPOS>MOLECULE
0KV
   69    71     1     0     0
SMALL
No Charge or Current Charge


@<TRIPOS>ATOM
      1 C7           5.0350    -0.3820    -0.1540 c3         1 0KV      -0.263100
      2 C8           6.3640    -0.7010     0.5220 ca         1 0KV      -0.077300
      3 C9           6.5620    -0.3880     1.8800 ca         1 0KV      -0.084000
      4 C10          7.7860    -0.6830     2.5040 ca         1 0KV      -0.112000
      5 C11          8.8200    -1.2930     1.7730 ca         1 0KV      -0.102000
      6 C12          8.6270    -1.6090     0.4180 ca         1 0KV      -0.112000
      7 C13          7.4020    -1.3140    -0.2060 ca         1 0KV      -0.084000
      8 S            4.9580     1.2650    -0.8830 s6         1 0KV       1.203100
      9 O1S          4.9720     2.2750     0.1760 o          1 0KV      -0.534500
     10 O2S          5.8920     1.3630    -2.0060 o          1 0KV      -0.534500
     11 N1           3.4340     1.3070    -1.5650 n7         1 0KV      -0.911300
     12 C1           1.0530     0.4630    -1.2610 c          1 0KV       0.545000
     13 O1           1.3040    -0.6530    -1.7090 o          1 0KV      -0.582000
     14 CA1          2.2210     1.3420    -0.6810 c6         1 0KV       0.171500
     15 CB1          1.7990     2.8030    -0.3850 c6         1 0KV      -0.077400
     16 CD1         -0.6580     2.2640    -0.6730 c6         1 0KV       0.111000
     17 CG1          0.4100     2.8420     0.2760 c6         1 0KV      -0.095400
     18 C2          -1.9630    -0.9170    -0.8370 c          1 0KV       0.607100
     19 N2          -0.2750     0.9630    -1.2730 n          1 0KV      -0.376800
     20 O2          -1.5760    -1.0480     0.3170 o          1 0KV      -0.599100
     21 CA2         -1.3790     0.1200    -1.8190 c3         1 0KV       0.008000
     22 C3          -3.2390    -4.1550    -1.0380 c          1 0KV       0.555900
     23 N3          -2.9800    -1.6910    -1.3580 ns         1 0KV      -0.491900
     24 C4          -7.5030    -1.5950    -0.0700 c6         1 0KV      -0.074400
     25 C5          -8.2220    -0.5080     0.7630 c6         1 0KV      -0.107400
     26 C6          -7.6460     0.8920     0.4460 c6         1 0KV       0.211800
     27 CA3         -3.7190    -2.7410    -0.6130 c3         1 0KV      -0.012300
     28 CB3         -5.2570    -2.5940    -0.7780 c3         1 0KV      -0.077400
     29 CD3         -5.4460    -0.0750    -0.1070 c6         1 0KV       0.220800
     30 NE3         -6.1860     0.9190     0.7220 nh         1 0KV      -0.744600
     31 CG3         -5.9610    -1.5300     0.1270 c6         1 0KV      -0.091700
     32 NH1         -5.8940     2.5150     2.2240 nv         1 0KV      -1.055200
     33 NH2         -5.1150     0.4570     2.7050 n2         1 0KV      -0.913100
     34 H7           4.8420    -1.0900    -0.9670 h1         1 0KV       0.109200
     35 H7A          4.2190    -0.4420     0.5730 h1         1 0KV       0.109200
     36 H9           5.7670     0.0860     2.4540 ha         1 0KV       0.120000
     37 H10          7.9340    -0.4380     3.5540 ha         1 0KV       0.113500
     38 H11          9.7670    -1.5210     2.2560 ha         1 0KV       0.111000
     39 H12          9.4250    -2.0820    -0.1490 ha         1 0KV       0.113500
     40 H13          7.2610    -1.5620    -1.2570 ha         1 0KV       0.120000
     41 HA1          2.4320     0.8580     0.2840 h1         1 0KV       0.106700
     42 HN1          3.4380     0.4050    -2.0450 hn         1 0KV       0.496000
     43 HB1          2.5340     3.2890     0.2690 hc         1 0KV       0.059200
     44 HB1A         1.7780     3.3810    -1.3190 hc         1 0KV       0.059200
     45 HG1          0.4240     2.2680     1.2140 hc         1 0KV       0.061200
     46 HG1A         0.1460     3.8740     0.5440 hc         1 0KV       0.061200
     47 HD1         -0.8340     2.9800    -1.4890 h1         1 0KV       0.050200
     48 HD1A        -1.6050     2.1540    -0.1250 h1         1 0KV       0.050200
     49 HA2         -1.0290    -0.4220    -2.7070 h1         1 0KV       0.083700
     50 HA2A        -2.2050     0.7650    -2.1420 h1         1 0KV       0.083700
     51 HN3         -3.2120    -1.5390    -2.3340 hn         1 0KV       0.316500
     52 H4A         -7.8800    -2.5880     0.2140 hc         1 0KV       0.041200
     53 H5A         -9.2990    -0.5220     0.5480 hc         1 0KV       0.053200
     54 H6A         -7.8280     1.1140    -0.6160 h1         1 0KV       0.052700
     55 HA3         -3.4860    -2.6690     0.4580 h1         1 0KV       0.104700
     56 HB3         -5.4840    -2.4030    -1.8350 hc         1 0KV       0.046700
     57 HB3A        -5.7090    -3.5680    -0.5540 hc         1 0KV       0.046700
     58 HD3         -5.5740     0.1710    -1.1720 h1         1 0KV       0.058200
     59 HD3A        -4.3710    -0.0080     0.1070 h1         1 0KV       0.058200
     60 HG3         -5.7360    -1.8110     1.1650 hc         1 0KV       0.077700
     61 HNH1        -6.1810     2.9820     1.3770 hn         1 0KV       0.451500
     62 HNHA        -5.0680     2.9150     2.6440 hn         1 0KV       0.451500
     63 HNH2        -4.8800     0.9820     3.5520 hn         1 0KV       0.373400
     64 H3          -3.6140    -4.9890    -0.4040 h4         1 0KV      -0.013800
     65 H4          -7.7480    -1.4600    -1.1330 hc         1 0KV       0.041200
     66 H5          -8.1120    -0.7210     1.8350 hc         1 0KV       0.053200
     67 H6          -8.1770     1.6580     1.0300 h1         1 0KV       0.052700
     68 O3          -2.4970    -4.3780    -1.9910 o          1 0KV      -0.491100
     69 CZ3         -5.7640     1.2310     1.9690 c2         1 0KV       0.800100
@<TRIPOS>BOND
     1     1     2 1   
     2     1     8 1   
     3     1    34 1   
     4     1    35 1   
     5     2     3 ar  
     6     2     7 ar  
     7     3     4 ar  
     8     3    36 1   
     9     4     5 ar  
    10     4    37 1   
    11     5     6 ar  
    12     5    38 1   
    13     6     7 ar  
    14     6    39 1   
    15     7    40 1   
    16     8     9 2   
    17     8    10 2   
    18     8    11 1   
    19    11    14 1   
    20    11    42 1   
    21    12    13 2   
    22    12    14 1   
    23    12    19 1   
    24    14    15 1   
    25    14    41 1   
    26    15    17 1   
    27    15    43 1   
    28    15    44 1   
    29    16    17 1   
    30    16    19 1   
    31    16    47 1   
    32    16    48 1   
    33    17    45 1   
    34    17    46 1   
    35    18    20 2   
    36    18    21 1   
    37    18    23 1   
    38    19    21 1   
    39    21    49 1   
    40    21    50 1   
    41    22    27 1   
    42    22    64 1   
    43    22    68 2   
    44    23    27 1   
    45    23    51 1   
    46    24    25 1   
    47    24    31 1   
    48    24    52 1   
    49    24    65 1   
    50    25    26 1   
    51    25    53 1   
    52    25    66 1   
    53    26    30 1   
    54    26    54 1   
    55    26    67 1   
    56    27    28 1   
    57    27    55 1   
    58    28    31 1   
    59    28    56 1   
    60    28    57 1   
    61    29    30 1   
    62    29    31 1   
    63    29    58 1   
    64    29    59 1   
    65    30    69 1   
    66    31    60 1   
    67    32    61 1   
    68    32    62 1   
    69    32    69 1   
    70    33    63 1   
    71    33    69 2   
@<TRIPOS>SUBSTRUCTURE
     1 0KV         1 TEMP              0 ****  ****    0 ROOT
