@<TRIPOS>MOLECULE
0KW
   54    56     1     0     0
SMALL
bcc


@<TRIPOS>ATOM
      1 C01          6.8830     1.5290    -0.1690 ca         1 0KW       0.003400
      2 C02          6.0770     1.3340     0.9400 ca         1 0KW      -0.094500
      3 C03          4.7750     0.8820     0.7860 ca         1 0KW      -0.155500
      4 C04          4.2750     0.6240    -0.4900 ca         1 0KW       0.069600
      5 C05          5.1020     0.8260    -1.5970 ca         1 0KW      -0.155500
      6 C06          6.3990     1.2760    -1.4440 ca         1 0KW      -0.094500
      7 CL1          8.5080     2.0930     0.0350 cl         1 0KW      -0.108400
      8 N08          2.9820     0.1640    -0.7480 ns         1 0KW      -0.445100
      9 C09          1.9690    -0.0420     0.1050 c          1 0KW       0.591100
     10 C10          0.7120    -0.5490    -0.6240 c          1 0KW       0.589100
     11 N11         -0.3160    -0.7400     0.1990 ns         1 0KW      -0.529900
     12 O12          0.7190    -0.7420    -1.8290 o          1 0KW      -0.609100
     13 O13          1.9760     0.1310     1.3090 o          1 0KW      -0.574100
     14 C14         -1.6190    -1.1960    -0.2250 c3         1 0KW       0.087400
     15 C15         -1.9780    -2.5380     0.4350 c6         1 0KW       0.152500
     16 C16         -2.6430    -0.1470     0.1070 cc         1 0KW       0.420700
     17 C17         -0.9470    -3.6260     0.1350 c6         1 0KW      -0.108400
     18 C18         -1.3880    -4.9520     0.7520 c6         1 0KW      -0.074400
     19 C19         -2.8040    -5.3150     0.3190 c6         1 0KW      -0.115400
     20 C20         -3.7580    -4.1590     0.6040 c6         1 0KW       0.152800
     21 N21         -3.3260    -2.8930     0.0290 n7         1 0KW      -0.791200
     22 N22         -2.7290     0.4110     1.2680 nd         1 0KW      -0.648000
     23 C23         -3.7450     1.3300     1.3200 cd         1 0KW       0.365600
     24 C24         -4.4560     1.4700     0.1630 cc         1 0KW      -0.150700
     25 S25         -3.8000     0.4090    -1.0300 ss         1 0KW      -0.148300
     26 C26         -3.9670     2.0870     2.5870 c3         1 0KW      -0.120400
     27 C27         -5.5810     2.3970    -0.1580 c3         1 0KW      -0.005100
     28 C28         -5.0830     3.6640    -0.8440 c3         1 0KW       0.139400
     29 O29         -6.1950     4.4830    -1.1200 oh         1 0KW      -0.599800
     30 H1           6.4550     1.5300     1.9340 ha         1 0KW       0.149500
     31 H2           4.1700     0.7380     1.6660 ha         1 0KW       0.153000
     32 H3           4.7280     0.6300    -2.5950 ha         1 0KW       0.153000
     33 H4           7.0230     1.4280    -2.3140 ha         1 0KW       0.149500
     34 H5           2.7650    -0.0290    -1.7180 hn         1 0KW       0.350500
     35 H6          -0.1900    -0.5100     1.1750 hn         1 0KW       0.359500
     36 H7          -1.5800    -1.3400    -1.3070 h1         1 0KW       0.086700
     37 H8          -2.0010    -2.3740     1.5200 h1         1 0KW       0.079700
     38 H9          -0.8460    -3.7380    -0.9510 hc         1 0KW       0.049700
     39 H10          0.0350    -3.3450     0.5200 hc         1 0KW       0.049700
     40 H12         -0.6860    -5.7430     0.4800 hc         1 0KW       0.044700
     41 H11         -1.3530    -4.8660     1.8430 hc         1 0KW       0.044700
     42 H13         -2.8170    -5.5360    -0.7540 hc         1 0KW       0.045200
     43 H14         -3.1460    -6.2180     0.8310 hc         1 0KW       0.045200
     44 H16         -4.7590    -4.3830     0.2290 h1         1 0KW       0.055700
     45 H15         -3.8530    -4.0240     1.6870 h1         1 0KW       0.055700
     46 H17         -3.3580    -2.9720    -0.9840 hn         1 0KW       0.346800
     47 H20         -4.0320     1.4100     3.4380 hc         1 0KW       0.050700
     48 H19         -3.1400     2.7730     2.7780 hc         1 0KW       0.050700
     49 H21         -4.8820     2.6750     2.5530 hc         1 0KW       0.050700
     50 H22         -6.3140     1.8990    -0.7990 hc         1 0KW       0.067200
     51 H23         -6.1010     2.6650     0.7640 hc         1 0KW       0.067200
     52 H25         -4.3610     4.1630    -0.1860 h1         1 0KW       0.022700
     53 H24         -4.5440     3.3890    -1.7600 h1         1 0KW       0.022700
     54 H26         -5.8800     5.2810    -1.5540 ho         1 0KW       0.407000
@<TRIPOS>BOND
     1     1     2 ar  
     2     1     6 ar  
     3     1     7 1   
     4     2     3 ar  
     5     2    30 1   
     6     3     4 ar  
     7     3    31 1   
     8     4     5 ar  
     9     4     8 1   
    10     5     6 ar  
    11     5    32 1   
    12     6    33 1   
    13     8     9 1   
    14     8    34 1   
    15     9    10 1   
    16     9    13 2   
    17    10    11 1   
    18    10    12 2   
    19    11    14 1   
    20    11    35 1   
    21    14    15 1   
    22    14    16 1   
    23    14    36 1   
    24    15    17 1   
    25    15    21 1   
    26    15    37 1   
    27    16    22 2   
    28    16    25 1   
    29    17    18 1   
    30    17    38 1   
    31    17    39 1   
    32    18    19 1   
    33    18    40 1   
    34    18    41 1   
    35    19    20 1   
    36    19    42 1   
    37    19    43 1   
    38    20    21 1   
    39    20    44 1   
    40    20    45 1   
    41    21    46 1   
    42    22    23 1   
    43    23    24 2   
    44    23    26 1   
    45    24    25 1   
    46    24    27 1   
    47    26    47 1   
    48    26    48 1   
    49    26    49 1   
    50    27    28 1   
    51    27    50 1   
    52    27    51 1   
    53    28    29 1   
    54    28    52 1   
    55    28    53 1   
    56    29    54 1   
@<TRIPOS>SUBSTRUCTURE
     1 0KW         1 TEMP              0 ****  ****    0 ROOT
