@<TRIPOS>MOLECULE
0KW
   54    56     1     0     0
SMALL
No Charge or Current Charge


@<TRIPOS>ATOM
      1 C01          7.2640     1.1850    -0.1950 ca         1 0KW       0.095000
      2 C02          6.3690     1.4150     0.8620 ca         1 0KW      -0.076500
      3 C03          5.0190     1.0370     0.7390 ca         1 0KW      -0.137500
      4 C04          4.5540     0.4250    -0.4470 ca         1 0KW      -0.023000
      5 C05          5.4630     0.2010    -1.5000 ca         1 0KW      -0.137500
      6 C06          6.8120     0.5780    -1.3760 ca         1 0KW      -0.076500
      7 Cl1          8.9510     1.6580    -0.0380 cl         1 0KW      -0.200000
      8 N08          3.2040     0.0170    -0.6430 ns         1 0KW      -0.119000
      9 C09          2.0750     0.0870     0.1670 c          1 0KW       0.524100
     10 C10          0.7700    -0.5250    -0.5310 c          1 0KW       0.522100
     11 N11         -0.3760    -0.4820     0.2470 ns         1 0KW      -0.462900
     12 O12          0.7730    -0.9960    -1.6660 o          1 0KW      -0.609100
     13 O13          2.0500     0.5630     1.3030 o          1 0KW      -0.574100
     14 C14         -1.7110    -0.9770    -0.1620 c3         1 0KW       0.087400
     15 C15         -2.0110    -2.4180     0.3760 c6         1 0KW       0.152500
     16 C16         -2.8000     0.0100     0.2120 cc         1 0KW       0.420700
     17 C17         -0.8750    -3.4460     0.0960 c6         1 0KW      -0.108400
     18 C18         -1.2460    -4.8520     0.6300 c6         1 0KW      -0.074400
     19 C19         -2.6210    -5.3000     0.0810 c6         1 0KW      -0.115400
     20 C20         -3.7010    -4.2280     0.3560 c6         1 0KW       0.152800
     21 N21         -3.2880    -2.9200    -0.2020 n7         1 0KW      -0.846400
     22 N22         -2.8370     0.6450     1.3810 nd         1 0KW      -0.648000
     23 C23         -3.9240     1.5030     1.4140 cd         1 0KW       0.300300
     24 C24         -4.6870     1.5220     0.2660 cc         1 0KW      -0.230300
     25 S25         -4.0470     0.4340    -0.9330 ss         1 0KW      -0.003400
     26 C26         -4.1740     2.3230     2.6490 c3         1 0KW      -0.120400
     27 C27         -5.9240     2.3390    -0.0190 c3         1 0KW      -0.005100
     28 C28         -5.6070     3.6760    -0.7200 c3         1 0KW       0.162600
     29 O29         -6.8170     4.4060    -0.9580 oh         1 0KW      -0.662000
     30 H1           6.7220     1.8850     1.7770 ha         1 0KW       0.131500
     31 H2           4.3560     1.2300     1.5770 ha         1 0KW       0.135000
     32 H3           5.1260    -0.2690    -2.4220 ha         1 0KW       0.135000
     33 H4           7.5060     0.4010    -2.1940 ha         1 0KW       0.131500
     34 H5           3.0310    -0.4080    -1.5470 hn         1 0KW       0.184000
     35 H6          -0.2870    -0.0460     1.1620 hn         1 0KW       0.359500
     36 H7          -1.7140    -1.0440    -1.2570 h1         1 0KW       0.086700
     37 H8          -2.1280    -2.3320     1.4690 h1         1 0KW       0.079700
     38 H9          -0.6770    -3.5000    -0.9830 hc         1 0KW       0.049700
     39 H10          0.0600    -3.1230     0.5720 hc         1 0KW       0.049700
     40 H12         -0.4720    -5.5790     0.3500 hc         1 0KW       0.044700
     41 H11         -1.2760    -4.8330     1.7290 hc         1 0KW       0.044700
     42 H13         -2.5480    -5.4820    -1.0010 hc         1 0KW       0.045200
     43 H14         -2.9160    -6.2530     0.5390 hc         1 0KW       0.045200
     44 H16         -4.6550    -4.5410    -0.0960 h1         1 0KW       0.055700
     45 H15         -3.8640    -4.1350     1.4410 h1         1 0KW       0.055700
     46 H17         -3.1640    -3.0360    -1.2150 hn         1 0KW       0.402000
     47 H20         -3.3560     2.2230     3.3730 hc         1 0KW       0.050700
     48 H19         -4.2690     3.3860     2.3990 hc         1 0KW       0.050700
     49 H21         -5.0990     2.0070     3.1440 hc         1 0KW       0.050700
     50 H22         -6.6110     1.7610    -0.6500 hc         1 0KW       0.067200
     51 H23         -6.4640     2.5430     0.9140 hc         1 0KW       0.067200
     52 H25         -4.9280     4.2620    -0.0860 h1         1 0KW       0.022700
     53 H24         -5.0920     3.4720    -1.6680 h1         1 0KW       0.022700
     54 H26         -6.5620     5.2430    -1.4060 ho         1 0KW       0.446000
@<TRIPOS>BOND
     1     1     2 ar  
     2     1     6 ar  
     3     1     7 1   
     4     2     3 ar  
     5     2    30 1   
     6     3     4 ar  
     7     3    31 1   
     8     4     5 ar  
     9     4     8 1   
    10     5     6 ar  
    11     5    32 1   
    12     6    33 1   
    13     8     9 1   
    14     8    34 1   
    15     9    10 1   
    16     9    13 2   
    17    10    11 1   
    18    10    12 2   
    19    11    14 1   
    20    11    35 1   
    21    14    15 1   
    22    14    16 1   
    23    14    36 1   
    24    15    17 1   
    25    15    21 1   
    26    15    37 1   
    27    16    22 2   
    28    16    25 1   
    29    17    18 1   
    30    17    38 1   
    31    17    39 1   
    32    18    19 1   
    33    18    40 1   
    34    18    41 1   
    35    19    20 1   
    36    19    42 1   
    37    19    43 1   
    38    20    21 1   
    39    20    44 1   
    40    20    45 1   
    41    21    46 1   
    42    22    23 1   
    43    23    24 2   
    44    23    26 1   
    45    24    25 1   
    46    24    27 1   
    47    26    47 1   
    48    26    48 1   
    49    26    49 1   
    50    27    28 1   
    51    27    50 1   
    52    27    51 1   
    53    28    29 1   
    54    28    52 1   
    55    28    53 1   
    56    29    54 1   
@<TRIPOS>SUBSTRUCTURE
     1 0KW         1 TEMP              0 ****  ****    0 ROOT
