@<TRIPOS>MOLECULE
0KY
   31    32     1     0     0
SMALL
No Charge or Current Charge


@<TRIPOS>ATOM
      1 S            0.9740     2.1960    -1.7290 s          1 0KY      -0.557400
      2 C9          -0.2280     1.2800    -1.0090 cs         1 0KY       0.473400
      3 N2          -1.3390     1.9220    -0.5180 ns         1 0KY      -0.420500
      4 N1          -0.2360    -0.1140    -0.8650 n          1 0KY      -0.210000
      5 C5           0.9150    -0.9420    -1.3140 c3         1 0KY       0.084000
      6 C3           1.8220    -1.4300    -0.1570 c3         1 0KY       0.159300
      7 O1           2.3230    -0.2630     0.5270 os         1 0KY      -0.444000
      8 C2           2.9770    -0.4920     1.7880 c3         1 0KY       0.161600
      9 C1           3.3020     0.8820     2.3910 c3         1 0KY      -0.092100
     10 C4           3.0130    -2.2740    -0.6660 c3         1 0KY      -0.125100
     11 C6          -1.3410    -0.7280    -0.2700 cc         1 0KY      -0.013400
     12 N4          -1.5640    -2.0660    -0.0470 na         1 0KY      -0.319500
     13 C10         -2.7910    -2.1750     0.5710 cc         1 0KY       0.396400
     14 N3          -3.3420    -0.9770     0.7390 nd         1 0KY      -0.579000
     15 C7          -2.4320    -0.0700     0.2090 cd         1 0KY       0.133500
     16 C8          -2.4630     1.4130     0.0920 c          1 0KY       0.512500
     17 O2          -3.3710     2.1360     0.4770 o          1 0KY      -0.482000
     18 H1          -1.3360     2.9260    -0.6200 hn         1 0KY       0.361500
     19 H2           0.5260    -1.8150    -1.8530 h1         1 0KY       0.089200
     20 H3           1.5270    -0.3880    -2.0340 h1         1 0KY       0.089200
     21 H4           1.2180    -2.0420     0.5260 h1         1 0KY       0.018700
     22 H5           2.3200    -1.0450     2.4730 h1         1 0KY       0.019200
     23 H6           3.9080    -1.0580     1.6580 h1         1 0KY       0.019200
     24 H7           3.9690     1.4460     1.7280 hc         1 0KY       0.048367
     25 H8           2.3850     1.4640     2.5430 hc         1 0KY       0.048367
     26 H9           3.8000     0.7630     3.3600 hc         1 0KY       0.048367
     27 H10          2.6570    -3.0840    -1.3140 hc         1 0KY       0.049033
     28 H11          3.7110    -1.6570    -1.2440 hc         1 0KY       0.049033
     29 H12          3.5570    -2.7360     0.1650 hc         1 0KY       0.049033
     30 H13         -0.9600    -2.8420    -0.2840 hn         1 0KY       0.364000
     31 H14         -3.2150    -3.1280     0.8630 h5         1 0KY       0.068100
@<TRIPOS>BOND
     1     1     2 2   
     2     2     3 1   
     3     2     4 1   
     4     3    16 1   
     5     3    18 1   
     6     4     5 1   
     7     4    11 1   
     8     5     6 1   
     9     5    19 1   
    10     5    20 1   
    11     6     7 1   
    12     6    10 1   
    13     6    21 1   
    14     7     8 1   
    15     8     9 1   
    16     8    22 1   
    17     8    23 1   
    18     9    24 1   
    19     9    25 1   
    20     9    26 1   
    21    10    27 1   
    22    10    28 1   
    23    10    29 1   
    24    11    12 1   
    25    11    15 2   
    26    12    13 1   
    27    12    30 1   
    28    13    14 2   
    29    13    31 1   
    30    14    15 1   
    31    15    16 1   
    32    16    17 2   
@<TRIPOS>SUBSTRUCTURE
     1 0KY         1 TEMP              0 ****  ****    0 ROOT
