@<TRIPOS>MOLECULE
0KY
   31    32     1     0     0
SMALL
abcg2


@<TRIPOS>ATOM
      1 S            1.0160     2.0140    -1.9510 s          1 0KY      -0.557400
      2 C9          -0.1290     1.1820    -1.0770 cs         1 0KY       0.473400
      3 N2          -1.1440     1.8670    -0.4780 ns         1 0KY      -0.420500
      4 N1          -0.1500    -0.1730    -0.9300 n          1 0KY      -0.210000
      5 C5           0.9350    -1.0250    -1.4010 c3         1 0KY       0.084000
      6 C3           1.8660    -1.4410    -0.2640 c3         1 0KY       0.159300
      7 O1           2.2150    -0.2750     0.4320 os         1 0KY      -0.444000
      8 C2           2.6120    -0.4870     1.7700 c3         1 0KY       0.161600
      9 C1           2.9260     0.8510     2.4000 c3         1 0KY      -0.092100
     10 C4           3.0710    -2.1780    -0.8300 c3         1 0KY      -0.125100
     11 C6          -1.1770    -0.7180    -0.2160 cc         1 0KY      -0.013400
     12 N4          -1.4230    -2.0190     0.0420 na         1 0KY      -0.319500
     13 C10         -2.5770    -2.0590     0.7760 cc         1 0KY       0.396400
     14 N3          -3.0670    -0.8780     0.9930 nd         1 0KY      -0.579000
     15 C7          -2.2010    -0.0210     0.3770 cd         1 0KY       0.133500
     16 C8          -2.2320     1.4040     0.2690 c          1 0KY       0.512500
     17 O2          -3.0500     2.1760     0.7240 o          1 0KY      -0.482000
     18 H1          -1.1050     2.8690    -0.6150 hn         1 0KY       0.361500
     19 H2           0.5110    -1.9020    -1.8920 h1         1 0KY       0.089200
     20 H3           1.4800    -0.4660    -2.1580 h1         1 0KY       0.089200
     21 H4           1.3310    -2.1300     0.4100 h1         1 0KY       0.018700
     22 H5           1.8090    -0.9880     2.3280 h1         1 0KY       0.019200
     23 H6           3.4910    -1.1410     1.8240 h1         1 0KY       0.019200
     24 H7           3.7550     1.3450     1.8910 hc         1 0KY       0.048367
     25 H8           2.0600     1.5120     2.3700 hc         1 0KY       0.048367
     26 H9           3.2100     0.7120     3.4430 hc         1 0KY       0.048367
     27 H10          2.7560    -3.0580    -1.3910 hc         1 0KY       0.049033
     28 H11          3.6430    -1.5320    -1.4980 hc         1 0KY       0.049033
     29 H12          3.7320    -2.5180    -0.0330 hc         1 0KY       0.049033
     30 H13         -0.8850    -2.8260    -0.2380 hn         1 0KY       0.364000
     31 H14         -2.9910    -2.9970     1.1110 h5         1 0KY       0.068100
@<TRIPOS>BOND
     1     1     2 2   
     2     2     3 1   
     3     2     4 1   
     4     3    16 1   
     5     3    18 1   
     6     4     5 1   
     7     4    11 1   
     8     5     6 1   
     9     5    19 1   
    10     5    20 1   
    11     6     7 1   
    12     6    10 1   
    13     6    21 1   
    14     7     8 1   
    15     8     9 1   
    16     8    22 1   
    17     8    23 1   
    18     9    24 1   
    19     9    25 1   
    20     9    26 1   
    21    10    27 1   
    22    10    28 1   
    23    10    29 1   
    24    11    12 1   
    25    11    15 2   
    26    12    13 1   
    27    12    30 1   
    28    13    14 2   
    29    13    31 1   
    30    14    15 1   
    31    15    16 1   
    32    16    17 2   
@<TRIPOS>SUBSTRUCTURE
     1 0KY         1 TEMP              0 ****  ****    0 ROOT
