@<TRIPOS>MOLECULE
0L1
   18    17     1     0     0
SMALL
No Charge or Current Charge


@<TRIPOS>ATOM
      1 O1          -3.7410    -0.1190    -1.0790 o          1 0L1      -0.763000
      2 C2          -3.2290     0.0470     0.0180 c          1 0L1       0.712500
      3 O2          -3.7200     0.7500     0.8890 o          1 0L1      -0.763000
      4 C3          -1.8700    -0.6220     0.2990 c3         1 0L1      -0.197400
      5 C4          -0.7110     0.3140    -0.1270 c3         1 0L1      -0.061400
      6 C5           0.6880    -0.2930     0.1270 c3         1 0L1      -0.061400
      7 C6           1.8460     0.6430    -0.2990 c3         1 0L1      -0.197400
      8 C7           3.2060    -0.0260    -0.0180 c          1 0L1       0.712500
      9 O4           3.6960    -0.7280    -0.8890 o          1 0L1      -0.763000
     10 O3           3.7170     0.1410     1.0790 o          1 0L1      -0.763000
     11 H2          -1.7390    -0.7890     1.3760 hc         1 0L1       0.011450
     12 H3          -1.7570    -1.5310    -0.3040 hc         1 0L1       0.011450
     13 H4          -0.8140     0.5500    -1.1930 hc         1 0L1       0.024700
     14 H5          -0.7960     1.2620     0.4190 hc         1 0L1       0.024700
     15 H6           0.7900    -0.5280     1.1930 hc         1 0L1       0.024700
     16 H7           0.7730    -1.2410    -0.4190 hc         1 0L1       0.024700
     17 H8           1.7150     0.8100    -1.3760 hc         1 0L1       0.011450
     18 H9           1.7330     1.5530     0.3040 hc         1 0L1       0.011450
@<TRIPOS>BOND
     1     1     2 1   
     2     2     3 1   
     3     2     4 1   
     4     4     5 1   
     5     4    11 1   
     6     4    12 1   
     7     5     6 1   
     8     5    13 1   
     9     5    14 1   
    10     6     7 1   
    11     6    15 1   
    12     6    16 1   
    13     7     8 1   
    14     7    17 1   
    15     7    18 1   
    16     8     9 1   
    17     8    10 1   
@<TRIPOS>SUBSTRUCTURE
     1 0L1         1 TEMP              0 ****  ****    0 ROOT
