@<TRIPOS>MOLECULE
0L1
   18    17     1     0     0
SMALL
bcc


@<TRIPOS>ATOM
      1 O1          -4.2210    -0.7730    -0.1130 o          1 0L1      -0.868300
      2 C2          -3.2640     0.0300    -0.0520 c          1 0L1       0.923100
      3 O2          -3.3510     1.2730    -0.0090 o          1 0L1      -0.868300
      4 C3          -1.8600    -0.5990    -0.0240 c3         1 0L1      -0.197400
      5 C4          -0.6860     0.3670    -0.0180 c3         1 0L1      -0.061400
      6 C5           0.6630    -0.3450     0.0210 c3         1 0L1      -0.061400
      7 C6           1.8370     0.6210     0.0270 c3         1 0L1      -0.197400
      8 C7           3.2410    -0.0090     0.0460 c          1 0L1       0.923100
      9 O4           3.3260    -1.2520     0.0100 o          1 0L1      -0.868300
     10 O3           4.1990     0.7940     0.0900 o          1 0L1      -0.868300
     11 H2          -1.8010    -1.2500     0.8570 hc         1 0L1       0.011450
     12 H3          -1.7720    -1.2790    -0.8790 hc         1 0L1       0.011450
     13 H4          -0.7310     1.0100    -0.9030 hc         1 0L1       0.024700
     14 H5          -0.7670     1.0400     0.8410 hc         1 0L1       0.024700
     15 H6           0.7080    -0.9880     0.9060 hc         1 0L1       0.024700
     16 H7           0.7430    -1.0180    -0.8380 hc         1 0L1       0.024700
     17 H8           1.7730     1.2780    -0.8490 hc         1 0L1       0.011450
     18 H9           1.7520     1.2950     0.8870 hc         1 0L1       0.011450
@<TRIPOS>BOND
     1     1     2 1   
     2     2     3 1   
     3     2     4 1   
     4     4     5 1   
     5     4    11 1   
     6     4    12 1   
     7     5     6 1   
     8     5    13 1   
     9     5    14 1   
    10     6     7 1   
    11     6    15 1   
    12     6    16 1   
    13     7     8 1   
    14     7    17 1   
    15     7    18 1   
    16     8     9 1   
    17     8    10 1   
@<TRIPOS>SUBSTRUCTURE
     1 0L1         1 TEMP              0 ****  ****    0 ROOT
