@<TRIPOS>MOLECULE
0L8
   34    36     1     0     0
SMALL
bcc


@<TRIPOS>ATOM
      1 C1          -3.0910     0.5220    -0.1960 ca         1 0L8      -0.084300
      2 C2          -2.6410    -0.7900    -0.1680 ca         1 0L8      -0.102000
      3 C3          -1.2790    -1.0470    -0.1220 ca         1 0L8      -0.009900
      4 C4          -0.3250    -0.0320    -0.0940 cp         1 0L8       0.012000
      5 C5          -0.7910     1.2940    -0.1190 ca         1 0L8       0.007000
      6 C6          -2.1590     1.5500    -0.1720 ca         1 0L8      -0.090000
      7 C7           1.1250    -0.3200    -0.0080 cp         1 0L8      -0.081000
      8 C8           1.8170    -0.8680    -1.0820 ca         1 0L8      -0.063000
      9 C9           3.1820    -1.0920    -1.0150 ca         1 0L8      -0.198500
     10 C10          3.8840    -0.7730     0.1460 ca         1 0L8       0.144100
     11 C11          3.2000    -0.2300     1.2320 ca         1 0L8      -0.198500
     12 C12          1.8370    -0.0060     1.1460 ca         1 0L8      -0.063000
     13 C13          0.1320     2.4360    -0.0850 cc         1 0L8      -0.187300
     14 O14          5.2110    -0.9680     0.2700 oh         1 0L8      -0.494100
     15 BR1         -0.7380    -2.8580    -0.0240 br         1 0L8      -0.095100
     16 C16         -4.5640     0.8100    -0.2980 c3         1 0L8       0.186700
     17 O17         -4.8770     1.9290     0.4950 oh         1 0L8      -0.593800
     18 C14          1.3590     2.6380    -0.8030 cc         1 0L8      -0.245300
     19 C17         -0.0530     3.5730     0.6350 cd         1 0L8       0.245600
     20 C15          1.7970     3.8690    -0.4630 cd         1 0L8       0.222600
     21 O1           0.9490     4.4440     0.4170 os         1 0L8      -0.324800
     22 H1          -3.3540    -1.6050    -0.1740 ha         1 0L8       0.146000
     23 H2          -2.4960     2.5780    -0.2180 ha         1 0L8       0.147000
     24 H3           1.2910    -1.1130    -1.9970 ha         1 0L8       0.138000
     25 H4           3.7000    -1.5140    -1.8690 ha         1 0L8       0.139500
     26 H5           3.7390     0.0210     2.1370 ha         1 0L8       0.139500
     27 H6           1.3220     0.4280     1.9940 ha         1 0L8       0.138000
     28 H7           5.5780    -1.3230    -0.5480 ho         1 0L8       0.425000
     29 H8          -4.8110     0.9880    -1.3520 h1         1 0L8       0.028700
     30 H9          -5.1270    -0.0810     0.0080 h1         1 0L8       0.028700
     31 H10         -5.7710     2.2080     0.2780 ho         1 0L8       0.407000
     32 H11          1.8390     1.9600    -1.4880 ha         1 0L8       0.166000
     33 H12         -0.8180     3.8730     1.3340 h4         1 0L8       0.057100
     34 H13          2.6590     4.4470    -0.7550 h4         1 0L8       0.053100
@<TRIPOS>BOND
     1     1     2 ar  
     2     1     6 ar  
     3     1    16 1   
     4     2     3 ar  
     5     2    22 1   
     6     3     4 ar  
     7     3    15 1   
     8     4     5 ar  
     9     4     7 1   
    10     5     6 ar  
    11     5    13 1   
    12     6    23 1   
    13     7     8 ar  
    14     7    12 ar  
    15     8     9 ar  
    16     8    24 1   
    17     9    10 ar  
    18     9    25 1   
    19    10    11 ar  
    20    10    14 1   
    21    11    12 ar  
    22    11    26 1   
    23    12    27 1   
    24    13    18 1   
    25    13    19 2   
    26    14    28 1   
    27    16    17 1   
    28    16    29 1   
    29    16    30 1   
    30    17    31 1   
    31    18    20 2   
    32    18    32 1   
    33    19    21 1   
    34    19    33 1   
    35    20    21 1   
    36    20    34 1   
@<TRIPOS>SUBSTRUCTURE
     1 0L8         1 TEMP              0 ****  ****    0 ROOT
