@<TRIPOS>MOLECULE
0L8
   34    36     1     0     0
SMALL
No Charge or Current Charge


@<TRIPOS>ATOM
      1 C1          -3.0770     0.5950    -0.2040 ca         1 0L8      -0.084300
      2 C2          -2.6170    -0.7270    -0.1430 ca         1 0L8      -0.084000
      3 C3          -1.2430    -0.9940    -0.1080 ca         1 0L8      -0.009900
      4 C4          -0.2910     0.0610    -0.1380 cp         1 0L8       0.012000
      5 C5          -0.7490     1.4170    -0.2000 ca         1 0L8       0.007000
      6 C6          -2.1470     1.6490    -0.2290 ca         1 0L8      -0.072000
      7 C7           1.1550    -0.2840    -0.0430 cp         1 0L8      -0.081000
      8 C8           1.8410    -0.8500    -1.1440 ca         1 0L8      -0.045000
      9 C9           3.2040    -1.1800    -1.0490 ca         1 0L8      -0.180500
     10 C10          3.8980    -0.9520     0.1500 ca         1 0L8       0.144100
     11 C11          3.2330    -0.3960     1.2520 ca         1 0L8      -0.180500
     12 C12          1.8700    -0.0660     1.1590 ca         1 0L8      -0.045000
     13 C13          0.1540     2.5910    -0.2570 cc         1 0L8      -0.122000
     14 O14          5.2190    -1.2680     0.2510 oh         1 0L8      -0.533100
     15 Br1         -0.7120    -2.8350     0.0180 br         1 0L8      -0.095100
     16 C16         -4.5710     0.8870    -0.2490 c3         1 0L8       0.209900
     17 O17         -5.0660     1.1380     1.0710 oh         1 0L8      -0.656000
     18 C14          1.5420     2.7100    -0.5030 cc         1 0L8      -0.162000
     19 C17         -0.2660     3.8640     0.0580 cd         1 0L8       0.135900
     20 C15          1.8620     4.0290    -0.3530 cd         1 0L8       0.112900
     21 O1           0.7620     4.7760    -0.0080 os         1 0L8      -0.236000
     22 H1          -3.3280    -1.5500    -0.1150 ha         1 0L8       0.128000
     23 H2          -2.5380     2.6590    -0.2970 ha         1 0L8       0.129000
     24 H3           1.3070    -1.0290    -2.0750 ha         1 0L8       0.120000
     25 H4           3.7120    -1.6120    -1.9080 ha         1 0L8       0.121500
     26 H5           3.7710    -0.2210     2.1800 ha         1 0L8       0.121500
     27 H6           1.3590     0.3640     2.0180 ha         1 0L8       0.120000
     28 H7           5.5140    -1.6440    -0.6060 ho         1 0L8       0.464000
     29 H8          -4.7510     1.7560    -0.8950 h1         1 0L8       0.028700
     30 H9          -5.0960     0.0320    -0.6960 h1         1 0L8       0.028700
     31 H10         -6.0290     1.3140     0.9830 ho         1 0L8       0.446000
     32 H11          2.2300     1.9200    -0.7780 ha         1 0L8       0.148000
     33 H12         -1.2320     4.2470     0.3620 h4         1 0L8       0.057100
     34 H13          2.8080     4.5450    -0.4600 h4         1 0L8       0.053100
@<TRIPOS>BOND
     1     1     2 ar  
     2     1     6 ar  
     3     1    16 1   
     4     2     3 ar  
     5     2    22 1   
     6     3     4 ar  
     7     3    15 1   
     8     4     5 ar  
     9     4     7 1   
    10     5     6 ar  
    11     5    13 1   
    12     6    23 1   
    13     7     8 ar  
    14     7    12 ar  
    15     8     9 ar  
    16     8    24 1   
    17     9    10 ar  
    18     9    25 1   
    19    10    11 ar  
    20    10    14 1   
    21    11    12 ar  
    22    11    26 1   
    23    12    27 1   
    24    13    18 1   
    25    13    19 2   
    26    14    28 1   
    27    16    17 1   
    28    16    29 1   
    29    16    30 1   
    30    17    31 1   
    31    18    20 2   
    32    18    32 1   
    33    19    21 1   
    34    19    33 1   
    35    20    21 1   
    36    20    34 1   
@<TRIPOS>SUBSTRUCTURE
     1 0L8         1 TEMP              0 ****  ****    0 ROOT
