@<TRIPOS>MOLECULE
0L9
   39    41     1     0     0
SMALL
bcc


@<TRIPOS>ATOM
      1 CL1          1.1290    -5.4070     0.1770 cl         1 0L9      -0.144400
      2 C19          0.9730    -3.6810     0.1670 ca         1 0L9       0.023400
      3 C20          1.3130    -2.9730    -0.9750 ca         1 0L9      -0.135000
      4 C21          1.1890    -1.5920    -0.9760 ca         1 0L9      -0.098000
      5 C18          0.5120    -3.0320     1.3020 ca         1 0L9      -0.135000
      6 C17          0.3860    -1.6520     1.2840 ca         1 0L9      -0.098000
      7 C10          0.7230    -0.9180     0.1490 cp         1 0L9      -0.026000
      8 C9           0.5540     0.5560     0.1410 cp         1 0L9      -0.020000
      9 C8           1.6220     1.4200     0.1960 ca         1 0L9      -0.083600
     10 C11          3.0410     0.9150     0.2510 c3         1 0L9       0.026400
     11 O13          3.6570     1.4490     1.3960 os         1 0L9      -0.411600
     12 C14          4.7230     0.6750     1.8850 c3         1 0L9       0.142700
     13 C12          3.7820     1.1960    -1.0880 c          1 0L9       0.920600
     14 O1           3.1560     0.8470    -2.1070 o          1 0L9      -0.817300
     15 O2           4.9120     1.7060    -1.0310 o          1 0L9      -0.817300
     16 C5          -0.7680     1.0830     0.0780 ca         1 0L9      -0.138300
     17 C6          -1.9210     0.2720    -0.0200 ca         1 0L9      -0.072000
     18 C1          -3.1560     0.8570    -0.0750 ca         1 0L9      -0.033900
     19 BR          -4.6970    -0.2260    -0.2090 br         1 0L9      -0.135100
     20 C2          -3.3170     2.2550    -0.0400 ca         1 0L9      -0.125000
     21 C3          -2.2070     3.0490     0.0430 ca         1 0L9      -0.165300
     22 C4          -0.9140     2.4850     0.1010 ca         1 0L9       0.409600
     23 N            0.1450     3.3190     0.1690 nb         1 0L9      -0.709000
     24 C7           1.3570     2.8290     0.2130 ca         1 0L9       0.492600
     25 C16          2.4550     3.8480     0.3030 c3         1 0L9      -0.150400
     26 H1           1.6760    -3.4870    -1.8540 ha         1 0L9       0.139500
     27 H2           1.4820    -1.0280    -1.8510 ha         1 0L9       0.162000
     28 H3           0.2520    -3.5910     2.1900 ha         1 0L9       0.139500
     29 H4           0.0210    -1.1450     2.1680 ha         1 0L9       0.162000
     30 H5           3.0080    -0.1800     0.3420 h1         1 0L9       0.030700
     31 H6           5.0810     1.1490     2.7990 h1         1 0L9       0.017700
     32 H7           4.4020    -0.3450     2.1350 h1         1 0L9       0.017700
     33 H8           5.5530     0.6090     1.1790 h1         1 0L9       0.017700
     34 H10         -1.8210    -0.8040    -0.0580 ha         1 0L9       0.149000
     35 H11         -4.3030     2.6990    -0.0830 ha         1 0L9       0.134000
     36 H12         -2.3040     4.1270     0.0650 ha         1 0L9       0.141000
     37 H13          2.7660     3.9820     1.3400 hc         1 0L9       0.062367
     38 H14          3.3460     3.5730    -0.2580 hc         1 0L9       0.062367
     39 H15          2.0880     4.8040    -0.0630 hc         1 0L9       0.062367
@<TRIPOS>BOND
     1     1     2 1   
     2     2     3 ar  
     3     2     5 ar  
     4     3     4 ar  
     5     3    26 1   
     6     4     7 ar  
     7     4    27 1   
     8     5     6 ar  
     9     5    28 1   
    10     6     7 ar  
    11     6    29 1   
    12     7     8 1   
    13     8     9 ar  
    14     8    16 ar  
    15     9    10 1   
    16     9    24 ar  
    17    10    11 1   
    18    10    13 1   
    19    10    30 1   
    20    11    12 1   
    21    12    31 1   
    22    12    32 1   
    23    12    33 1   
    24    13    14 1   
    25    13    15 1   
    26    16    17 ar  
    27    16    22 ar  
    28    17    18 ar  
    29    17    34 1   
    30    18    19 1   
    31    18    20 ar  
    32    20    21 ar  
    33    20    35 1   
    34    21    22 ar  
    35    21    36 1   
    36    22    23 ar  
    37    23    24 ar  
    38    24    25 1   
    39    25    37 1   
    40    25    38 1   
    41    25    39 1   
@<TRIPOS>SUBSTRUCTURE
     1 0L9         1 TEMP              0 ****  ****    0 ROOT
