@<TRIPOS>MOLECULE
0L9
   39    41     1     0     0
SMALL
No Charge or Current Charge


@<TRIPOS>ATOM
      1 Cl1          1.3200    -5.4490     0.2990 cl         1 0L9      -0.236000
      2 C19          1.0810    -3.7080     0.2410 ca         1 0L9       0.115000
      3 C20          0.7510    -3.0870    -0.9750 ca         1 0L9      -0.117000
      4 C21          0.5620    -1.6950    -1.0220 ca         1 0L9      -0.080000
      5 C18          1.2230    -2.9420     1.4090 ca         1 0L9      -0.117000
      6 C17          1.0320    -1.5500     1.3620 ca         1 0L9      -0.080000
      7 C10          0.6970    -0.9070     0.1460 cp         1 0L9      -0.026000
      8 C9           0.5030     0.5730     0.0980 cp         1 0L9      -0.020000
      9 C8           1.6110     1.4650     0.1840 ca         1 0L9      -0.018300
     10 C11          3.0490     0.9230     0.2990 c3         1 0L9       0.049600
     11 O13          3.5200     1.1750     1.6530 os         1 0L9      -0.458000
     12 C14          4.5900     0.3220     2.1010 c3         1 0L9       0.165900
     13 C12          3.9780     1.4630    -0.8510 c          1 0L9       0.710000
     14 O1           3.6100     1.2870    -2.0040 o          1 0L9      -0.712000
     15 O2           5.0150     2.0530    -0.5730 o          1 0L9      -0.712000
     16 C5          -0.7990     1.1340    -0.0290 ca         1 0L9      -0.073000
     17 C6          -1.9470     0.3100    -0.1090 ca         1 0L9      -0.054000
     18 C1          -3.2240     0.8760    -0.2370 ca         1 0L9      -0.033900
     19 Br          -4.7620    -0.2540    -0.3460 br         1 0L9      -0.135100
     20 C2          -3.3760     2.2680    -0.2830 ca         1 0L9      -0.107000
     21 C3          -2.2420     3.0920    -0.1950 ca         1 0L9      -0.082000
     22 C4          -0.9520     2.5430    -0.0660 ca         1 0L9       0.279000
     23 N            0.1030     3.3760     0.0290 nb         1 0L9      -0.709000
     24 C7           1.3480     2.8620     0.1580 ca         1 0L9       0.427300
     25 C16          2.4280     3.9310     0.2730 c3         1 0L9      -0.150400
     26 H1           0.6440    -3.6830    -1.8780 ha         1 0L9       0.121500
     27 H2           0.3100    -1.2170    -1.9660 ha         1 0L9       0.144000
     28 H3           1.4800    -3.4260     2.3480 ha         1 0L9       0.121500
     29 H4           1.1450    -0.9600     2.2690 ha         1 0L9       0.144000
     30 H5           3.0310    -0.1600     0.1340 h1         1 0L9       0.030700
     31 H6           4.8790     0.5820     3.1270 h1         1 0L9       0.017700
     32 H7           4.2760    -0.7300     2.0930 h1         1 0L9       0.017700
     33 H8           5.4760     0.4230     1.4620 h1         1 0L9       0.017700
     34 H10         -1.8640    -0.7730    -0.0690 ha         1 0L9       0.131000
     35 H11         -4.3650     2.7090    -0.3820 ha         1 0L9       0.116000
     36 H12         -2.3630     4.1710    -0.2250 ha         1 0L9       0.123000
     37 H13          3.1710     3.6780     1.0370 hc         1 0L9       0.062367
     38 H14          2.9470     4.0670    -0.6820 hc         1 0L9       0.062367
     39 H15          2.0080     4.9030     0.5550 hc         1 0L9       0.062367
@<TRIPOS>BOND
     1     1     2 1   
     2     2     3 ar  
     3     2     5 ar  
     4     3     4 ar  
     5     3    26 1   
     6     4     7 ar  
     7     4    27 1   
     8     5     6 ar  
     9     5    28 1   
    10     6     7 ar  
    11     6    29 1   
    12     7     8 1   
    13     8     9 ar  
    14     8    16 ar  
    15     9    10 1   
    16     9    24 ar  
    17    10    11 1   
    18    10    13 1   
    19    10    30 1   
    20    11    12 1   
    21    12    31 1   
    22    12    32 1   
    23    12    33 1   
    24    13    14 1   
    25    13    15 1   
    26    16    17 ar  
    27    16    22 ar  
    28    17    18 ar  
    29    17    34 1   
    30    18    19 1   
    31    18    20 ar  
    32    20    21 ar  
    33    20    35 1   
    34    21    22 ar  
    35    21    36 1   
    36    22    23 ar  
    37    23    24 ar  
    38    24    25 1   
    39    25    37 1   
    40    25    38 1   
    41    25    39 1   
@<TRIPOS>SUBSTRUCTURE
     1 0L9         1 TEMP              0 ****  ****    0 ROOT
