@<TRIPOS>MOLECULE
0LA
   30    32     1     0     0
SMALL
No Charge or Current Charge


@<TRIPOS>ATOM
      1 Cl           5.4680     1.4770    -0.2980 cl         1 0LA      -0.243000
      2 C3           4.1090     0.3790    -0.0880 ca         1 0LA       0.076000
      3 C2           4.3480    -0.9600     0.3130 ca         1 0LA      -0.094000
      4 C1           3.2730    -1.8600     0.4880 ca         1 0LA      -0.144000
      5 C9A          1.9850    -1.3710     0.2510 ca         1 0LA      -0.009200
      6 N9           0.7340    -2.0000     0.3350 na         1 0LA      -0.234600
      7 C4           2.7950     0.8440    -0.3200 ca         1 0LA      -0.051000
      8 C4A          1.7300    -0.0590    -0.1430 cp         1 0LA      -0.060000
      9 C4B          0.2890     0.0940    -0.2960 cp         1 0LA      -0.122000
     10 C5          -0.5030     1.1950    -0.6670 ca         1 0LA      -0.066000
     11 C6          -1.9040     1.0220    -0.7240 ca         1 0LA      -0.114000
     12 C8A         -0.3110    -1.1230     0.0060 ca         1 0LA       0.000800
     13 C8          -1.6920    -1.3250    -0.0400 ca         1 0LA      -0.164000
     14 C7          -2.5080    -0.2310    -0.4160 ca         1 0LA       0.058700
     15 C10         -4.0260    -0.4180    -0.4810 c3         1 0LA      -0.179400
     16 C14         -4.6580     0.1350    -1.7830 c3         1 0LA      -0.052100
     17 C11         -4.7030     0.1630     0.7790 c          1 0LA       0.724000
     18 O13         -5.2670    -0.6140     1.5360 o          1 0LA      -0.721000
     19 O12         -4.6330     1.3660     0.9840 o          1 0LA      -0.721000
     20 H1           5.3670    -1.2960     0.4860 ha         1 0LA       0.113000
     21 H2           3.4410    -2.8900     0.7950 ha         1 0LA       0.109000
     22 H3           0.6000    -2.9690     0.6020 hn         1 0LA       0.344000
     23 H4           2.6120     1.8700    -0.6270 ha         1 0LA       0.127000
     24 H5          -0.0500     2.1550    -0.9020 ha         1 0LA       0.101000
     25 H6          -2.5240     1.8700    -0.9990 ha         1 0LA       0.125000
     26 H7          -2.1210    -2.2930     0.2040 ha         1 0LA       0.109000
     27 H8          -4.2290    -1.4960    -0.4840 hc         1 0LA       0.034700
     28 H9          -4.1650    -0.2970    -2.6630 hc         1 0LA       0.017700
     29 H10         -5.7220    -0.1250    -1.8290 hc         1 0LA       0.017700
     30 H11         -4.5750     1.2260    -1.8430 hc         1 0LA       0.017700
@<TRIPOS>BOND
     1     1     2 1   
     2     2     3 ar  
     3     2     7 ar  
     4     3     4 ar  
     5     3    20 1   
     6     4     5 ar  
     7     4    21 1   
     8     5     6 1   
     9     5     8 ar  
    10     6    12 1   
    11     6    22 1   
    12     7     8 ar  
    13     7    23 1   
    14     8     9 1   
    15     9    10 ar  
    16     9    12 ar  
    17    10    11 ar  
    18    10    24 1   
    19    11    14 ar  
    20    11    25 1   
    21    12    13 ar  
    22    13    14 ar  
    23    13    26 1   
    24    14    15 1   
    25    15    16 1   
    26    15    17 1   
    27    15    27 1   
    28    16    28 1   
    29    16    29 1   
    30    16    30 1   
    31    17    18 1   
    32    17    19 1   
@<TRIPOS>SUBSTRUCTURE
     1 0LA         1 TEMP              0 ****  ****    0 ROOT
