@<TRIPOS>MOLECULE
0LA
   30    32     1     0     0
SMALL
bcc


@<TRIPOS>ATOM
      1 CL           5.4380     1.3620    -0.0730 cl         1 0LA      -0.151400
      2 C3           4.0540     0.3100     0.0090 ca         1 0LA      -0.015600
      3 C2           4.2630    -1.0530     0.2370 ca         1 0LA      -0.112000
      4 C1           3.1890    -1.9230     0.3050 ca         1 0LA      -0.162000
      5 C9A          1.9110    -1.3990     0.1410 ca         1 0LA      -0.009200
      6 N9           0.6960    -2.0280     0.1630 na         1 0LA      -0.184300
      7 C4           2.7910     0.8440    -0.1540 ca         1 0LA      -0.069000
      8 C4A          1.7030    -0.0220    -0.0880 cp         1 0LA      -0.060000
      9 C4B          0.2800     0.1610    -0.2080 cp         1 0LA      -0.122000
     10 C5          -0.5490     1.2610    -0.4330 ca         1 0LA      -0.084000
     11 C6          -1.9140     1.0700    -0.4900 ca         1 0LA      -0.132000
     12 C8A         -0.3000    -1.1090    -0.0470 ca         1 0LA       0.000800
     13 C8          -1.6790    -1.3010    -0.1100 ca         1 0LA      -0.182000
     14 C7          -2.4950    -0.2040    -0.3300 ca         1 0LA       0.058700
     15 C10         -3.9870    -0.3650    -0.4440 c3         1 0LA      -0.179400
     16 C14         -4.4750    -0.0170    -1.8490 c3         1 0LA      -0.052100
     17 C11         -4.7410     0.4040     0.6740 c          1 0LA       0.934600
     18 O13         -4.1380     0.5450     1.7550 o          1 0LA      -0.826300
     19 O12         -5.9000     0.7790     0.4170 o          1 0LA      -0.826300
     20 H1           5.2680    -1.4310     0.3620 ha         1 0LA       0.131000
     21 H2           3.3500    -2.9780     0.4820 ha         1 0LA       0.127000
     22 H3           0.5570    -3.0160     0.2930 hn         1 0LA       0.293700
     23 H4           2.6520     1.9040    -0.3260 ha         1 0LA       0.145000
     24 H5          -0.1310     2.2530    -0.5590 ha         1 0LA       0.119000
     25 H6          -2.5570     1.9260    -0.6580 ha         1 0LA       0.143000
     26 H7          -2.1050    -2.2900     0.0140 ha         1 0LA       0.127000
     27 H8          -4.2150    -1.4250    -0.2720 hc         1 0LA       0.034700
     28 H9          -3.9460    -0.6010    -2.6030 hc         1 0LA       0.017700
     29 H10         -5.5390    -0.2240    -1.9530 hc         1 0LA       0.017700
     30 H11         -4.3210     1.0380    -2.0800 hc         1 0LA       0.017700
@<TRIPOS>BOND
     1     1     2 1   
     2     2     3 ar  
     3     2     7 ar  
     4     3     4 ar  
     5     3    20 1   
     6     4     5 ar  
     7     4    21 1   
     8     5     6 1   
     9     5     8 ar  
    10     6    12 1   
    11     6    22 1   
    12     7     8 ar  
    13     7    23 1   
    14     8     9 1   
    15     9    10 ar  
    16     9    12 ar  
    17    10    11 ar  
    18    10    24 1   
    19    11    14 ar  
    20    11    25 1   
    21    12    13 ar  
    22    13    14 ar  
    23    13    26 1   
    24    14    15 1   
    25    15    16 1   
    26    15    17 1   
    27    15    27 1   
    28    16    28 1   
    29    16    29 1   
    30    16    30 1   
    31    17    18 1   
    32    17    19 1   
@<TRIPOS>SUBSTRUCTURE
     1 0LA         1 TEMP              0 ****  ****    0 ROOT
