@<TRIPOS>MOLECULE
0LB
   56    59     1     0     0
SMALL
No Charge or Current Charge


@<TRIPOS>ATOM
      1 N29          0.3600     3.1680     1.3920 n1         1 0LB      -0.443000
      2 C28          1.4200     3.1260     0.9070 c1         1 0LB       0.323900
      3 C25          2.7650     3.0710     0.3430 cx         1 0LB       0.096500
      4 C27          3.7560     4.1580     0.6940 cx         1 0LB      -0.100400
      5 C26          3.1840     4.0820    -0.7010 cx         1 0LB      -0.100400
      6 N24          3.2770     1.7260     0.2320 ns         1 0LB      -0.474900
      7 C22          2.8780     0.8130    -0.7210 c          1 0LB       0.615100
      8 O23          2.0830     1.1010    -1.6050 o          1 0LB      -0.593100
      9 C18          3.4730    -0.6060    -0.5940 c6         1 0LB      -0.128700
     10 C16          4.3710    -0.9970    -1.7990 c6         1 0LB      -0.070400
     11 C20          2.3910    -1.6780    -0.2500 c6         1 0LB      -0.126700
     12 C21          2.9730    -3.1160    -0.1570 c6         1 0LB      -0.070400
     13 C19          3.8230    -3.4660    -1.4040 c6         1 0LB      -0.076400
     14 C17          4.9480    -2.4250    -1.6320 c6         1 0LB      -0.076400
     15 C14          1.5180    -1.3230     0.9870 c          1 0LB       0.610100
     16 O15          2.0300    -0.7340     1.9310 o          1 0LB      -0.612100
     17 N8           0.1610    -1.7230     1.0570 n          1 0LB      -0.393800
     18 C10         -0.6010    -2.4150    -0.0200 c6         1 0LB       0.087000
     19 C12         -1.6210    -1.4470    -0.6780 c6         1 0LB       0.165800
     20 N11         -2.5200    -0.8110     0.3400 nh         1 0LB      -0.786400
     21 C9          -1.7940    -0.2300     1.5190 c6         1 0LB       0.165800
     22 C7          -0.7530    -1.2200     2.1160 c6         1 0LB       0.087000
     23 C2          -3.7920    -0.3060    -0.0220 ca         1 0LB       0.277000
     24 C4          -4.8310    -0.2710     0.9310 ca         1 0LB      -0.131500
     25 C6          -6.1030     0.2270     0.5900 ca         1 0LB      -0.123500
     26 C5          -6.3430     0.6930    -0.7110 ca         1 0LB       0.137000
     27 F13         -7.5630     1.1710    -1.0400 f          1 0LB      -0.183000
     28 C3          -5.3210     0.6640    -1.6720 ca         1 0LB      -0.123500
     29 C1          -4.0500     0.1650    -1.3280 ca         1 0LB      -0.131500
     30 H3           3.4210     4.9730     1.3330 hc         1 0LB       0.086700
     31 H4           4.7970     3.8770     0.8290 hc         1 0LB       0.086700
     32 H5           3.8400     3.7450    -1.5000 hc         1 0LB       0.086700
     33 H6           2.4660     4.8430    -0.9960 hc         1 0LB       0.086700
     34 H7           3.9120     1.3820     0.9430 hn         1 0LB       0.328500
     35 H8           4.1480    -0.5670     0.2730 hc         1 0LB       0.079700
     36 H9           3.7860    -0.9470    -2.7280 hc         1 0LB       0.049200
     37 H10          5.1910    -0.2740    -1.9090 hc         1 0LB       0.049200
     38 H11          1.7130    -1.7140    -1.1080 hc         1 0LB       0.076700
     39 H12          3.5950    -3.2020     0.7450 hc         1 0LB       0.052200
     40 H13          2.1620    -3.8490    -0.0430 hc         1 0LB       0.052200
     41 H14          4.2620    -4.4660    -1.2830 hc         1 0LB       0.043700
     42 H15          3.1770    -3.5150    -2.2920 hc         1 0LB       0.043700
     43 H16          5.5290    -2.6960    -2.5240 hc         1 0LB       0.044200
     44 H17          5.6490    -2.4460    -0.7860 hc         1 0LB       0.044200
     45 H18          0.0470    -2.8620    -0.7820 h1         1 0LB       0.065200
     46 H19         -1.1570    -3.2490     0.4300 h1         1 0LB       0.065200
     47 H20         -1.0700    -0.6710    -1.2310 h1         1 0LB       0.053950
     48 H21         -2.2150    -2.0150    -1.4090 h1         1 0LB       0.053950
     49 H22         -1.2700     0.6870     1.2110 h1         1 0LB       0.053950
     50 H23         -2.4970     0.0540     2.3150 h1         1 0LB       0.053950
     51 H24         -1.2830    -2.0700     2.5670 h1         1 0LB       0.065200
     52 H25         -0.1980    -0.7200     2.9220 h1         1 0LB       0.065200
     53 H26         -4.6550    -0.6420     1.9360 ha         1 0LB       0.118000
     54 H27         -6.8990     0.2480     1.3300 ha         1 0LB       0.128500
     55 H28         -5.5130     1.0280    -2.6780 ha         1 0LB       0.128500
     56 H29         -3.2660     0.1580    -2.0790 ha         1 0LB       0.118000
@<TRIPOS>BOND
     1     1     2 3   
     2     2     3 1   
     3     3     4 1   
     4     3     5 1   
     5     3     6 1   
     6     4     5 1   
     7     4    30 1   
     8     4    31 1   
     9     5    32 1   
    10     5    33 1   
    11     6     7 1   
    12     6    34 1   
    13     7     8 2   
    14     7     9 1   
    15     9    10 1   
    16     9    11 1   
    17     9    35 1   
    18    10    14 1   
    19    10    36 1   
    20    10    37 1   
    21    11    12 1   
    22    11    15 1   
    23    11    38 1   
    24    12    13 1   
    25    12    39 1   
    26    12    40 1   
    27    13    14 1   
    28    13    41 1   
    29    13    42 1   
    30    14    43 1   
    31    14    44 1   
    32    15    16 2   
    33    15    17 1   
    34    17    18 1   
    35    17    22 1   
    36    18    19 1   
    37    18    45 1   
    38    18    46 1   
    39    19    20 1   
    40    19    47 1   
    41    19    48 1   
    42    20    21 1   
    43    20    23 1   
    44    21    22 1   
    45    21    49 1   
    46    21    50 1   
    47    22    51 1   
    48    22    52 1   
    49    23    24 ar  
    50    23    29 ar  
    51    24    25 ar  
    52    24    53 1   
    53    25    26 ar  
    54    25    54 1   
    55    26    27 1   
    56    26    28 ar  
    57    28    29 ar  
    58    28    55 1   
    59    29    56 1   
@<TRIPOS>SUBSTRUCTURE
     1 0LB         1 TEMP              0 ****  ****    0 ROOT
