@<TRIPOS>MOLECULE
0LB
   56    59     1     0     0
SMALL
abcg2


@<TRIPOS>ATOM
      1 N29          0.9450     3.5850     1.9190 n1         1 0LB      -0.443000
      2 C28          1.8000     3.3790     1.1770 c1         1 0LB       0.323900
      3 C25          2.8720     3.1080     0.2480 cx         1 0LB       0.096500
      4 C27          3.8580     4.2180    -0.0190 cx         1 0LB      -0.100400
      5 C26          2.8530     3.8690    -1.0540 cx         1 0LB      -0.100400
      6 N24          3.3510     1.7750     0.2650 ns         1 0LB      -0.474900
      7 C22          2.6230     0.7620    -0.2640 c          1 0LB       0.615100
      8 O23          1.5380     0.9570    -0.7820 o          1 0LB      -0.593100
      9 C18          3.2860    -0.5980    -0.2170 c6         1 0LB      -0.128700
     10 C16          4.2110    -0.7720    -1.4290 c6         1 0LB      -0.070400
     11 C20          2.2320    -1.7010    -0.1900 c6         1 0LB      -0.126700
     12 C21          2.8980    -3.0840    -0.1580 c6         1 0LB      -0.070400
     13 C19          3.8470    -3.2590    -1.3390 c6         1 0LB      -0.076400
     14 C17          4.8800    -2.1410    -1.3940 c6         1 0LB      -0.076400
     15 C14          1.3270    -1.5200     1.0180 c          1 0LB       0.610100
     16 O15          1.7570    -0.9680     2.0240 o          1 0LB      -0.612100
     17 N8           0.0750    -2.0320     0.9690 n          1 0LB      -0.393800
     18 C10         -0.6050    -2.5010    -0.2230 c6         1 0LB       0.087000
     19 C12         -1.5830    -1.4480    -0.7220 c6         1 0LB       0.165800
     20 N11         -2.5200    -1.0970     0.3270 nh         1 0LB      -0.786400
     21 C9          -1.8570    -0.6790     1.5570 c6         1 0LB       0.165800
     22 C7          -0.8750    -1.7380     2.0260 c6         1 0LB       0.087000
     23 C2          -3.6620    -0.3790    -0.0410 ca         1 0LB       0.277000
     24 C4          -4.7000    -0.2010     0.8840 ca         1 0LB      -0.131500
     25 C6          -5.8570     0.4810     0.5520 ca         1 0LB      -0.123500
     26 C5          -5.9980     0.9830    -0.7280 ca         1 0LB       0.137000
     27 F13         -7.1280     1.6390    -1.0560 f          1 0LB      -0.183000
     28 C3          -5.0070     0.8220    -1.6710 ca         1 0LB      -0.123500
     29 C1          -3.8400     0.1510    -1.3220 ca         1 0LB      -0.131500
     30 H3           3.7370     5.1360     0.5380 hc         1 0LB       0.086700
     31 H4           4.8830     3.9040    -0.1660 hc         1 0LB       0.086700
     32 H5           3.1760     3.3140    -1.9240 hc         1 0LB       0.086700
     33 H6           2.0270     4.5470    -1.2240 hc         1 0LB       0.086700
     34 H7           4.1740     1.5690     0.8100 hn         1 0LB       0.328500
     35 H8           3.9010    -0.6640     0.6860 hc         1 0LB       0.079700
     36 H9           3.6310    -0.6700    -2.3520 hc         1 0LB       0.049200
     37 H10          4.9660     0.0170    -1.4380 hc         1 0LB       0.049200
     38 H11          1.6550    -1.6230    -1.1140 hc         1 0LB       0.076700
     39 H12          3.4490    -3.1970     0.7810 hc         1 0LB       0.052200
     40 H13          2.1360    -3.8670    -0.1720 hc         1 0LB       0.052200
     41 H14          4.3410    -4.2310    -1.2750 hc         1 0LB       0.043700
     42 H15          3.2680    -3.2630    -2.2690 hc         1 0LB       0.043700
     43 H16          5.5250    -2.2600    -2.2670 hc         1 0LB       0.044200
     44 H17          5.5290    -2.2000    -0.5140 hc         1 0LB       0.044200
     45 H18          0.0960    -2.7510    -1.0130 h1         1 0LB       0.065200
     46 H19         -1.1460    -3.4170     0.0290 h1         1 0LB       0.065200
     47 H20         -1.0110    -0.5780    -1.0820 h1         1 0LB       0.053950
     48 H21         -2.1290    -1.8610    -1.5710 h1         1 0LB       0.053950
     49 H22         -1.3220     0.2720     1.4120 h1         1 0LB       0.053950
     50 H23         -2.5920    -0.5210     2.3440 h1         1 0LB       0.053950
     51 H24         -1.4100    -2.6560     2.2840 h1         1 0LB       0.065200
     52 H25         -0.3540    -1.3930     2.9150 h1         1 0LB       0.065200
     53 H26         -4.6180    -0.6180     1.8800 ha         1 0LB       0.118000
     54 H27         -6.6460     0.6040     1.2820 ha         1 0LB       0.128500
     55 H28         -5.1260     1.2240    -2.6690 ha         1 0LB       0.128500
     56 H29         -3.0680     0.0590    -2.0730 ha         1 0LB       0.118000
@<TRIPOS>BOND
     1     1     2 3   
     2     2     3 1   
     3     3     4 1   
     4     3     5 1   
     5     3     6 1   
     6     4     5 1   
     7     4    30 1   
     8     4    31 1   
     9     5    32 1   
    10     5    33 1   
    11     6     7 1   
    12     6    34 1   
    13     7     8 2   
    14     7     9 1   
    15     9    10 1   
    16     9    11 1   
    17     9    35 1   
    18    10    14 1   
    19    10    36 1   
    20    10    37 1   
    21    11    12 1   
    22    11    15 1   
    23    11    38 1   
    24    12    13 1   
    25    12    39 1   
    26    12    40 1   
    27    13    14 1   
    28    13    41 1   
    29    13    42 1   
    30    14    43 1   
    31    14    44 1   
    32    15    16 2   
    33    15    17 1   
    34    17    18 1   
    35    17    22 1   
    36    18    19 1   
    37    18    45 1   
    38    18    46 1   
    39    19    20 1   
    40    19    47 1   
    41    19    48 1   
    42    20    21 1   
    43    20    23 1   
    44    21    22 1   
    45    21    49 1   
    46    21    50 1   
    47    22    51 1   
    48    22    52 1   
    49    23    24 ar  
    50    23    29 ar  
    51    24    25 ar  
    52    24    53 1   
    53    25    26 ar  
    54    25    54 1   
    55    26    27 1   
    56    26    28 ar  
    57    28    29 ar  
    58    28    55 1   
    59    29    56 1   
@<TRIPOS>SUBSTRUCTURE
     1 0LB         1 TEMP              0 ****  ****    0 ROOT
