@<TRIPOS>MOLECULE
0LC
   55    59     1     0     0
SMALL
bcc


@<TRIPOS>ATOM
      1 O24          3.4260    -0.4660     1.3110 o          1 0LC      -0.592100
      2 C23          3.6850    -0.1610     0.1590 c          1 0LC       0.684100
      3 N25          4.4300    -0.9660    -0.6340 ns         1 0LC      -0.540900
      4 C26          4.8860    -2.2240    -0.1710 cx         1 0LC       0.092500
      5 C29          5.9590    -2.1680     0.7930 c1         1 0LC       0.240700
      6 N30          6.8190    -2.1250     1.5580 n1         1 0LC      -0.363800
      7 C28          4.8790    -3.3830    -1.1350 cx         1 0LC      -0.100400
      8 C27          3.8910    -3.3500    -0.0270 cx         1 0LC      -0.100400
      9 C18          3.2510     1.1470    -0.4650 c6         1 0LC      -0.125700
     10 C19          4.2950     2.2360    -0.1830 c6         1 0LC      -0.072400
     11 C20          3.8640     3.5660    -0.7930 c6         1 0LC      -0.075400
     12 C22          2.4850     3.9820    -0.2970 c6         1 0LC      -0.076400
     13 C21          1.4480     2.8940    -0.5480 c6         1 0LC      -0.071400
     14 C17          1.8850     1.5630     0.0800 c6         1 0LC      -0.125700
     15 C15          0.8630     0.4670    -0.1850 c          1 0LC       0.684100
     16 O16          1.0950    -0.3900    -1.0310 o          1 0LC      -0.619100
     17 N10         -0.3020     0.4820     0.5010 n          1 0LC      -0.472800
     18 C12         -0.6250     1.3610     1.6140 c6         1 0LC       0.111000
     19 C13         -1.8640     2.2070     1.3240 c6         1 0LC      -0.038200
     20 C1          -2.9120     1.3040     0.7860 cc         1 0LC      -0.053300
     21 C11         -1.3010    -0.5440     0.2230 c6         1 0LC       0.168200
     22 C2          -2.6660     0.0540     0.2980 cd         1 0LC      -0.159400
     23 C5          -3.9220    -0.4880    -0.1040 ca         1 0LC      -0.060800
     24 C7          -4.3150    -1.7070    -0.6700 ca         1 0LC      -0.122000
     25 C6          -5.6530    -1.8770    -0.9330 ca         1 0LC       0.104900
     26 F14         -6.0650    -3.0420    -1.4760 f          1 0LC      -0.149900
     27 C8          -6.6200    -0.9050    -0.6680 ca         1 0LC      -0.148000
     28 C9          -6.2430     0.3040    -0.1110 ca         1 0LC      -0.118000
     29 C4          -4.8950     0.5030     0.1660 ca         1 0LC      -0.060200
     30 N3          -4.2450     1.5810     0.7040 na         1 0LC      -0.163400
     31 H1           4.6900    -0.6680    -1.5610 hn         1 0LC       0.327500
     32 H4           4.5460    -3.1560    -2.1390 hc         1 0LC       0.088950
     33 H5           5.7040    -4.0790    -1.0750 hc         1 0LC       0.088950
     34 H6           4.0190    -4.0300     0.8030 hc         1 0LC       0.088950
     35 H7           2.8670    -3.0850    -0.2550 hc         1 0LC       0.088950
     36 H8           3.1830     1.0160    -1.5490 hc         1 0LC       0.074700
     37 H9           4.4240     2.3490     0.8980 hc         1 0LC       0.052200
     38 H10          5.2630     1.9340    -0.5880 hc         1 0LC       0.052200
     39 H11          4.6010     4.3360    -0.5570 hc         1 0LC       0.044200
     40 H12          3.8470     3.4730    -1.8830 hc         1 0LC       0.044200
     41 H13          2.5320     4.1920     0.7760 hc         1 0LC       0.043200
     42 H14          2.1710     4.9080    -0.7830 hc         1 0LC       0.043200
     43 H15          0.4820     3.2060    -0.1460 hc         1 0LC       0.048200
     44 H16          1.3050     2.7560    -1.6240 hc         1 0LC       0.048200
     45 H17          1.9980     1.7140     1.1570 hc         1 0LC       0.080700
     46 H18         -0.8120     0.7430     2.4980 h1         1 0LC       0.057200
     47 H19          0.2140     2.0050     1.8540 h1         1 0LC       0.057200
     48 H20         -2.1900     2.6960     2.2450 hc         1 0LC       0.058700
     49 H21         -1.6300     3.0010     0.6090 hc         1 0LC       0.058700
     50 H22         -1.1150    -0.9570    -0.7660 h1         1 0LC       0.068200
     51 H23         -1.1930    -1.3710     0.9360 h1         1 0LC       0.068200
     52 H24         -3.6000    -2.4890    -0.8930 ha         1 0LC       0.154000
     53 H25         -7.6580    -1.1040    -0.8990 ha         1 0LC       0.148000
     54 H26         -6.9830     1.0650     0.0980 ha         1 0LC       0.135000
     55 H27         -4.6820     2.4340     1.0140 hn         1 0LC       0.300700
@<TRIPOS>BOND
     1     1     2 2   
     2     2     3 1   
     3     2     9 1   
     4     3     4 1   
     5     3    31 1   
     6     4     5 1   
     7     4     7 1   
     8     4     8 1   
     9     5     6 3   
    10     7     8 1   
    11     7    32 1   
    12     7    33 1   
    13     8    34 1   
    14     8    35 1   
    15     9    10 1   
    16     9    14 1   
    17     9    36 1   
    18    10    11 1   
    19    10    37 1   
    20    10    38 1   
    21    11    12 1   
    22    11    39 1   
    23    11    40 1   
    24    12    13 1   
    25    12    41 1   
    26    12    42 1   
    27    13    14 1   
    28    13    43 1   
    29    13    44 1   
    30    14    15 1   
    31    14    45 1   
    32    15    16 2   
    33    15    17 1   
    34    17    18 1   
    35    17    21 1   
    36    18    19 1   
    37    18    46 1   
    38    18    47 1   
    39    19    20 1   
    40    19    48 1   
    41    19    49 1   
    42    20    22 2   
    43    20    30 1   
    44    21    22 1   
    45    21    50 1   
    46    21    51 1   
    47    22    23 1   
    48    23    24 ar  
    49    23    29 ar  
    50    24    25 ar  
    51    24    52 1   
    52    25    26 1   
    53    25    27 ar  
    54    27    28 ar  
    55    27    53 1   
    56    28    29 ar  
    57    28    54 1   
    58    29    30 1   
    59    30    55 1   
@<TRIPOS>SUBSTRUCTURE
     1 0LC         1 TEMP              0 ****  ****    0 ROOT
