@<TRIPOS>MOLECULE
0LC
   55    59     1     0     0
SMALL
No Charge or Current Charge


@<TRIPOS>ATOM
      1 O24          3.9270    -0.2240     1.4590 o          1 0LC      -0.592100
      2 C23          3.8310    -0.0260     0.2560 c          1 0LC       0.617100
      3 N25          4.0260    -1.0290    -0.6700 ns         1 0LC      -0.473900
      4 C26          4.3130    -2.4060    -0.3430 cx         1 0LC       0.092500
      5 C29          5.6980    -2.6290     0.0560 c1         1 0LC       0.329900
      6 N30          6.8150    -2.8130     0.3380 n1         1 0LC      -0.453000
      7 C28          3.5990    -3.4660    -1.1520 cx         1 0LC      -0.100400
      8 C27          3.2080    -3.2270     0.2870 cx         1 0LC      -0.100400
      9 C18          3.4670     1.3620    -0.3130 c6         1 0LC      -0.125700
     10 C19          4.5530     2.4360    -0.0320 c6         1 0LC      -0.072400
     11 C20          4.1600     3.8060    -0.6390 c6         1 0LC      -0.075400
     12 C22          2.7660     4.2650    -0.1410 c6         1 0LC      -0.076400
     13 C21          1.6710     3.2240    -0.4850 c6         1 0LC      -0.071400
     14 C17          2.0250     1.8180     0.0770 c6         1 0LC      -0.125700
     15 C15          0.9230     0.7660    -0.2330 c          1 0LC       0.617100
     16 O16          1.0060     0.1000    -1.2570 o          1 0LC      -0.619100
     17 N10         -0.1540     0.5650     0.6650 n          1 0LC      -0.405800
     18 C12         -0.6090     1.5650     1.6800 c6         1 0LC       0.111000
     19 C13         -1.9090     2.2770     1.2290 c6         1 0LC      -0.038200
     20 C1          -2.8730     1.2490     0.7060 cc         1 0LC      -0.053300
     21 C11         -1.1180    -0.5630     0.4800 c6         1 0LC       0.168200
     22 C2          -2.5380    -0.0470     0.3480 cd         1 0LC      -0.159400
     23 C5          -3.7200    -0.7290    -0.1190 ca         1 0LC      -0.060800
     24 C7          -3.9170    -2.0350    -0.5870 ca         1 0LC      -0.104000
     25 C6          -5.2240    -2.3940    -0.9730 ca         1 0LC       0.140000
     26 F14         -5.4660    -3.6420    -1.4310 f          1 0LC      -0.185000
     27 C8          -6.2870    -1.4630    -0.8870 ca         1 0LC      -0.130000
     28 C9          -6.0520    -0.1530    -0.4090 ca         1 0LC      -0.100000
     29 C4          -4.7440     0.1770    -0.0320 ca         1 0LC      -0.060200
     30 N3          -4.2520     1.3750     0.4610 na         1 0LC      -0.213700
     31 H1           3.9080    -0.7690    -1.6420 hn         1 0LC       0.327500
     32 H4           2.9050    -3.1410    -1.9230 hc         1 0LC       0.088950
     33 H5           4.1340    -4.3840    -1.3840 hc         1 0LC       0.088950
     34 H6           3.4840    -3.9820     1.0190 hc         1 0LC       0.088950
     35 H7           2.2570    -2.7370     0.4780 hc         1 0LC       0.088950
     36 H8           3.4580     1.2370    -1.4050 hc         1 0LC       0.074700
     37 H9           4.6950     2.5440     1.0520 hc         1 0LC       0.052200
     38 H10          5.5200     2.1120    -0.4410 hc         1 0LC       0.052200
     39 H11          4.9150     4.5590    -0.3740 hc         1 0LC       0.044200
     40 H12          4.1580     3.7400    -1.7360 hc         1 0LC       0.044200
     41 H13          2.7950     4.4290     0.9450 hc         1 0LC       0.043200
     42 H14          2.5110     5.2330    -0.5940 hc         1 0LC       0.043200
     43 H15          0.7040     3.5640    -0.0900 hc         1 0LC       0.048200
     44 H16          1.5530     3.1640    -1.5760 hc         1 0LC       0.048200
     45 H17          2.0260     1.9450     1.1650 hc         1 0LC       0.080700
     46 H18         -0.8080     1.0330     2.6210 h1         1 0LC       0.057200
     47 H19          0.1500     2.3230     1.9040 h1         1 0LC       0.057200
     48 H20         -2.3370     2.8410     2.0680 hc         1 0LC       0.058700
     49 H21         -1.6750     3.0070     0.4420 hc         1 0LC       0.058700
     50 H22         -0.8620    -1.1640    -0.4040 h1         1 0LC       0.068200
     51 H23         -1.0490    -1.2320     1.3490 h1         1 0LC       0.068200
     52 H24         -3.0970    -2.7450    -0.6510 ha         1 0LC       0.136000
     53 H25         -7.2880    -1.7590    -1.1900 ha         1 0LC       0.130000
     54 H26         -6.8600     0.5720    -0.3380 ha         1 0LC       0.117000
     55 H27         -4.8030     2.2130     0.6180 hn         1 0LC       0.351000
@<TRIPOS>BOND
     1     1     2 2   
     2     2     3 1   
     3     2     9 1   
     4     3     4 1   
     5     3    31 1   
     6     4     5 1   
     7     4     7 1   
     8     4     8 1   
     9     5     6 3   
    10     7     8 1   
    11     7    32 1   
    12     7    33 1   
    13     8    34 1   
    14     8    35 1   
    15     9    10 1   
    16     9    14 1   
    17     9    36 1   
    18    10    11 1   
    19    10    37 1   
    20    10    38 1   
    21    11    12 1   
    22    11    39 1   
    23    11    40 1   
    24    12    13 1   
    25    12    41 1   
    26    12    42 1   
    27    13    14 1   
    28    13    43 1   
    29    13    44 1   
    30    14    15 1   
    31    14    45 1   
    32    15    16 2   
    33    15    17 1   
    34    17    18 1   
    35    17    21 1   
    36    18    19 1   
    37    18    46 1   
    38    18    47 1   
    39    19    20 1   
    40    19    48 1   
    41    19    49 1   
    42    20    22 2   
    43    20    30 1   
    44    21    22 1   
    45    21    50 1   
    46    21    51 1   
    47    22    23 1   
    48    23    24 ar  
    49    23    29 ar  
    50    24    25 ar  
    51    24    52 1   
    52    25    26 1   
    53    25    27 ar  
    54    27    28 ar  
    55    27    53 1   
    56    28    29 ar  
    57    28    54 1   
    58    29    30 1   
    59    30    55 1   
@<TRIPOS>SUBSTRUCTURE
     1 0LC         1 TEMP              0 ****  ****    0 ROOT
