@<TRIPOS>MOLECULE
0LG
   90    93     1     0     0
SMALL
No Charge or Current Charge


@<TRIPOS>ATOM
      1 O14         -4.0810    -4.6920    -1.6880 o          1 0LG      -0.531500
      2 S11         -4.7340    -4.5920    -0.3800 s6         1 0LG       1.198100
      3 O13         -5.9100    -3.7330    -0.2090 o          1 0LG      -0.531500
      4 C12         -5.1550    -6.2390     0.1720 c3         1 0LG      -0.347100
      5 N7          -3.5300    -4.0120     0.7210 nh         1 0LG      -0.776300
      6 C10         -2.6880    -5.0130     1.4050 c3         1 0LG       0.197100
      7 C6          -3.0630    -2.6940     0.5470 ca         1 0LG       0.242000
      8 C1          -3.8770    -1.5980     0.8930 ca         1 0LG      -0.015000
      9 C2          -3.4310    -0.2720     0.7110 ca         1 0LG      -0.147600
     10 C5          -1.7700    -2.4560     0.0410 ca         1 0LG      -0.051000
     11 C4          -1.2810    -1.1420    -0.1120 ca         1 0LG      -0.147600
     12 C3          -2.1270    -0.0560     0.2130 ca         1 0LG      -0.068000
     13 C8           0.1190    -0.9100    -0.6330 c          1 0LG       0.619700
     14 O15          0.7280    -1.7380    -1.2960 o          1 0LG      -0.588100
     15 N16          0.6370     0.3310    -0.3510 ns         1 0LG      -0.486900
     16 C17          1.7980     0.9660    -0.9920 c3         1 0LG       0.086700
     17 C18          3.1540     0.3150    -0.5700 c3         1 0LG       0.148300
     18 C19          4.3810     0.9360    -1.3030 c3         1 0LG       0.128800
     19 N20          5.6260     0.2080    -0.9770 n7         1 0LG      -0.855400
     20 C37          6.8640     0.8090    -1.4990 c3         1 0LG       0.207100
     21 C38          8.0760     0.0020    -1.0550 ca         1 0LG      -0.093300
     22 C39          8.8250     0.4020     0.0700 ca         1 0LG      -0.106000
     23 C40          9.9520    -0.3370     0.4870 ca         1 0LG      -0.076300
     24 C44         10.7540     0.1130     1.7110 c3         1 0LG      -0.015400
     25 C45         10.7120    -0.9450     2.8360 c3         1 0LG      -0.084100
     26 C46         12.2050     0.4850     1.3310 c3         1 0LG      -0.084100
     27 C41         10.3230    -1.4880    -0.2380 ca         1 0LG      -0.101000
     28 C42          9.5790    -1.8930    -1.3590 ca         1 0LG      -0.115000
     29 C43          8.4590    -1.1510    -1.7660 ca         1 0LG      -0.085000
     30 O21          3.3420     0.3820     0.8650 oh         1 0LG      -0.647000
     31 C22          1.7210     2.5020    -0.7450 c3         1 0LG       0.141600
     32 O34          0.3480     2.9100    -0.9220 os         1 0LG      -0.458000
     33 C35          0.0480     4.2580    -0.5420 c3         1 0LG       0.195800
     34 C36         -1.4500     4.4140    -0.6790 c2         1 0LG      -0.229200
     35 C33         -2.3360     4.4430     0.3320 c2         1 0LG      -0.200200
     36 C26         -3.8450     4.5390     0.1620 c3         1 0LG      -0.062200
     37 C25         -4.6260     3.3830     0.8370 c3         1 0LG       0.172000
     38 N23         -4.0100     2.0980     0.5110 ns         1 0LG      -0.504900
     39 C9          -4.3370     0.8830     1.0740 c          1 0LG       0.616700
     40 O24         -5.2750     0.7550     1.8470 o          1 0LG      -0.589100
     41 C27         -6.1090     3.4220     0.4630 ca         1 0LG      -0.098300
     42 C28         -6.5340     3.0830    -0.8390 ca         1 0LG      -0.093500
     43 C29         -7.8980     3.1260    -1.1760 ca         1 0LG      -0.109500
     44 C30         -8.8490     3.5080    -0.2150 ca         1 0LG      -0.105000
     45 C31         -8.4340     3.8480     1.0840 ca         1 0LG      -0.109500
     46 C32         -7.0700     3.8050     1.4210 ca         1 0LG      -0.093500
     47 H1          -4.2660    -6.8680     0.0760 h1         1 0LG       0.104367
     48 H2          -5.4900    -6.1630     1.2120 h1         1 0LG       0.104367
     49 H3          -5.9610    -6.6000    -0.4750 h1         1 0LG       0.104367
     50 H4          -2.2110    -5.6870     0.6810 h1         1 0LG       0.051033
     51 H5          -1.8970    -4.5200     1.9850 h1         1 0LG       0.051033
     52 H6          -3.2840    -5.6070     2.1100 h1         1 0LG       0.051033
     53 H7          -4.8680    -1.7850     1.2980 ha         1 0LG       0.142000
     54 H8          -1.1410    -3.3010    -0.2250 ha         1 0LG       0.140000
     55 H9          -1.7710     0.9620     0.0790 ha         1 0LG       0.130000
     56 H10          0.0580     0.9330     0.2190 hn         1 0LG       0.320500
     57 H11          1.6890     0.8140    -2.0750 h1         1 0LG       0.093700
     58 H12          3.1100    -0.7380    -0.8800 h1         1 0LG       0.112700
     59 H13          4.2020     0.9080    -2.3870 h1         1 0LG       0.032200
     60 H14          4.4740     1.9910    -1.0130 h1         1 0LG       0.032200
     61 H15          5.7040     0.1640     0.0470 hn         1 0LG       0.421000
     62 H17          6.8390     0.8450    -2.5970 h1         1 0LG       0.034700
     63 H18          6.9700     1.8430    -1.1410 h1         1 0LG       0.034700
     64 H19          8.5280     1.2920     0.6200 ha         1 0LG       0.104000
     65 H20         10.2950     1.0220     2.1190 hc         1 0LG       0.045700
     66 H21         11.2210    -0.5740     3.7340 hc         1 0LG       0.034700
     67 H22          9.6740    -1.1760     3.1050 hc         1 0LG       0.034700
     68 H23         11.2020    -1.8750     2.5260 hc         1 0LG       0.034700
     69 H24         12.7540    -0.3880     0.9610 hc         1 0LG       0.034700
     70 H25         12.2110     1.2530     0.5480 hc         1 0LG       0.034700
     71 H26         12.7410     0.8830     2.2010 hc         1 0LG       0.034700
     72 H27         11.1880    -2.0730     0.0660 ha         1 0LG       0.111000
     73 H28          9.8710    -2.7830    -1.9120 ha         1 0LG       0.113000
     74 H29          7.8850    -1.4710    -2.6340 ha         1 0LG       0.129000
     75 H30          3.4620     1.3250     1.1040 ho         1 0LG       0.430000
     76 H31          2.0490     2.7250     0.2780 h1         1 0LG       0.027200
     77 H32          2.3810     3.0340    -1.4440 h1         1 0LG       0.027200
     78 H33          0.3540     4.4510     0.4950 h1         1 0LG       0.030700
     79 H34          0.5650     4.9730    -1.1960 h1         1 0LG       0.030700
     80 H35         -1.7850     4.4760    -1.7150 ha         1 0LG       0.184000
     81 H36         -1.9980     4.3700     1.3690 ha         1 0LG       0.173000
     82 H37         -4.2060     5.4890     0.5730 hc         1 0LG       0.062700
     83 H38         -4.0940     4.5580    -0.9060 hc         1 0LG       0.062700
     84 H39         -4.5350     3.5130     1.9250 h1         1 0LG       0.069700
     85 H40         -3.2320     2.1080    -0.1330 hn         1 0LG       0.324500
     86 H41         -5.8070     2.7840    -1.5910 ha         1 0LG       0.112000
     87 H42         -8.2180     2.8620    -2.1820 ha         1 0LG       0.113500
     88 H43         -9.9040     3.5410    -0.4760 ha         1 0LG       0.113000
     89 H44         -9.1690     4.1440     1.8290 ha         1 0LG       0.113500
     90 H45         -6.7600     4.0700     2.4300 ha         1 0LG       0.112000
@<TRIPOS>BOND
     1     1     2 2   
     2     2     3 2   
     3     2     4 1   
     4     2     5 1   
     5     4    47 1   
     6     4    48 1   
     7     4    49 1   
     8     5     6 1   
     9     5     7 1   
    10     6    50 1   
    11     6    51 1   
    12     6    52 1   
    13     7     8 ar  
    14     7    10 ar  
    15     8     9 ar  
    16     8    53 1   
    17     9    12 ar  
    18     9    39 1   
    19    10    11 ar  
    20    10    54 1   
    21    11    12 ar  
    22    11    13 1   
    23    12    55 1   
    24    13    14 2   
    25    13    15 1   
    26    15    16 1   
    27    15    56 1   
    28    16    17 1   
    29    16    31 1   
    30    16    57 1   
    31    17    18 1   
    32    17    30 1   
    33    17    58 1   
    34    18    19 1   
    35    18    59 1   
    36    18    60 1   
    37    19    20 1   
    38    19    61 1   
    39    20    21 1   
    40    20    62 1   
    41    20    63 1   
    42    21    22 ar  
    43    21    29 ar  
    44    22    23 ar  
    45    22    64 1   
    46    23    24 1   
    47    23    27 ar  
    48    24    25 1   
    49    24    26 1   
    50    24    65 1   
    51    25    66 1   
    52    25    67 1   
    53    25    68 1   
    54    26    69 1   
    55    26    70 1   
    56    26    71 1   
    57    27    28 ar  
    58    27    72 1   
    59    28    29 ar  
    60    28    73 1   
    61    29    74 1   
    62    30    75 1   
    63    31    32 1   
    64    31    76 1   
    65    31    77 1   
    66    32    33 1   
    67    33    34 1   
    68    33    78 1   
    69    33    79 1   
    70    34    35 2   
    71    34    80 1   
    72    35    36 1   
    73    35    81 1   
    74    36    37 1   
    75    36    82 1   
    76    36    83 1   
    77    37    38 1   
    78    37    41 1   
    79    37    84 1   
    80    38    39 1   
    81    38    85 1   
    82    39    40 2   
    83    41    42 ar  
    84    41    46 ar  
    85    42    43 ar  
    86    42    86 1   
    87    43    44 ar  
    88    43    87 1   
    89    44    45 ar  
    90    44    88 1   
    91    45    46 ar  
    92    45    89 1   
    93    46    90 1   
@<TRIPOS>SUBSTRUCTURE
     1 0LG         1 TEMP              0 ****  ****    0 ROOT
