@<TRIPOS>MOLECULE
0LG
   90    93     1     0     0
SMALL
abcg2


@<TRIPOS>ATOM
      1 O14         -3.9210    -5.6730    -1.6550 o          1 0LG      -0.531500
      2 S11         -4.5930    -4.5570    -1.0060 s6         1 0LG       1.198100
      3 O13         -4.9080    -3.3730    -1.7880 o          1 0LG      -0.531500
      4 C12         -6.0790    -5.1690    -0.2560 c3         1 0LG      -0.347100
      5 N7          -3.6970    -4.0470     0.3110 nh         1 0LG      -0.776300
      6 C10         -2.9130    -5.0660     1.0030 c3         1 0LG       0.197100
      7 C6          -3.1710    -2.7280     0.2550 ca         1 0LG       0.242000
      8 C1          -3.9840    -1.6660     0.6280 ca         1 0LG      -0.015000
      9 C2          -3.4980    -0.3670     0.5780 ca         1 0LG      -0.147600
     10 C5          -1.8590    -2.5010    -0.1410 ca         1 0LG      -0.051000
     11 C4          -1.3490    -1.2090    -0.1240 ca         1 0LG      -0.147600
     12 C3          -2.1720    -0.1450     0.2220 ca         1 0LG      -0.068000
     13 C8           0.0440    -0.9320    -0.5930 c          1 0LG       0.619700
     14 O15          0.5040    -1.4870    -1.5800 o          1 0LG      -0.588100
     15 N16          0.7010    -0.0070     0.1250 ns         1 0LG      -0.486900
     16 C17          1.8380     0.7400    -0.3670 c3         1 0LG       0.086700
     17 C18          3.1570     0.1800     0.1840 c3         1 0LG       0.148300
     18 C19          4.3740     0.8650    -0.4210 c3         1 0LG       0.128800
     19 N20          5.5850     0.1360    -0.1060 n7         1 0LG      -0.855400
     20 C37          6.7670     0.7440    -0.6830 c3         1 0LG       0.207100
     21 C38          8.0070    -0.0570    -0.3840 ca         1 0LG      -0.093300
     22 C39          9.1640     0.5730     0.0640 ca         1 0LG      -0.106000
     23 C40         10.3350    -0.1330     0.3260 ca         1 0LG      -0.076300
     24 C44         11.5770     0.5870     0.8000 c3         1 0LG      -0.015400
     25 C45         12.1040     0.0160     2.1150 c3         1 0LG      -0.084100
     26 C46         12.6620     0.5790    -0.2780 c3         1 0LG      -0.084100
     27 C41         10.3290    -1.5120     0.1310 ca         1 0LG      -0.101000
     28 C42          9.1810    -2.1570    -0.3090 ca         1 0LG      -0.115000
     29 C43          8.0230    -1.4370    -0.5650 ca         1 0LG      -0.085000
     30 O21          3.1890     0.1690     1.5950 oh         1 0LG      -0.647000
     31 C22          1.6170     2.2170    -0.0460 c3         1 0LG       0.141600
     32 O34          0.3440     2.5820    -0.5080 os         1 0LG      -0.458000
     33 C35         -0.0800     3.8600    -0.0800 c3         1 0LG       0.195800
     34 C36         -1.5130     4.0180    -0.4700 c2         1 0LG      -0.229200
     35 C33         -2.5010     4.2080     0.3990 c2         1 0LG      -0.200200
     36 C26         -3.9470     4.3080     0.0260 c3         1 0LG      -0.062200
     37 C25         -4.7740     3.1770     0.6620 c3         1 0LG       0.172000
     38 N23         -4.1680     1.9140     0.3000 ns         1 0LG      -0.504900
     39 C9          -4.3870     0.7710     0.9690 c          1 0LG       0.616700
     40 O24         -5.2290     0.6560     1.8460 o          1 0LG      -0.589100
     41 C27         -6.2240     3.2800     0.2520 ca         1 0LG      -0.098300
     42 C28         -6.6720     2.7580    -0.9580 ca         1 0LG      -0.093500
     43 C29         -7.9960     2.9130    -1.3450 ca         1 0LG      -0.109500
     44 C30         -8.8890     3.5960    -0.5290 ca         1 0LG      -0.105000
     45 C31         -8.4480     4.1220     0.6780 ca         1 0LG      -0.109500
     46 C32         -7.1240     3.9610     1.0640 ca         1 0LG      -0.093500
     47 H1          -5.8430    -5.9650     0.4450 h1         1 0LG       0.104367
     48 H2          -6.5820    -4.3530     0.2560 h1         1 0LG       0.104367
     49 H3          -6.7110    -5.5610    -1.0520 h1         1 0LG       0.104367
     50 H4          -2.0190    -5.3700     0.4560 h1         1 0LG       0.051033
     51 H5          -2.6180    -4.6640     1.9690 h1         1 0LG       0.051033
     52 H6          -3.5190    -5.9510     1.1900 h1         1 0LG       0.051033
     53 H7          -5.0000    -1.8580     0.9490 ha         1 0LG       0.142000
     54 H8          -1.2280    -3.3250    -0.4480 ha         1 0LG       0.140000
     55 H9          -1.7710     0.8620     0.2050 ha         1 0LG       0.130000
     56 H10          0.2790     0.3090     0.9840 hn         1 0LG       0.320500
     57 H11          1.8670     0.6200    -1.4540 h1         1 0LG       0.093700
     58 H12          3.1960    -0.8720    -0.1140 h1         1 0LG       0.112700
     59 H13          4.2570     0.8830    -1.5100 h1         1 0LG       0.032200
     60 H14          4.4210     1.9210    -0.1030 h1         1 0LG       0.032200
     61 H15          5.6970     0.0950     0.9000 hn         1 0LG       0.421000
     62 H17          6.6230     0.7900    -1.7680 h1         1 0LG       0.034700
     63 H18          6.9200     1.7840    -0.3550 h1         1 0LG       0.034700
     64 H19          9.1510     1.6480     0.2200 ha         1 0LG       0.104000
     65 H20         11.2990     1.6300     0.9810 hc         1 0LG       0.045700
     66 H21         12.9630     0.5920     2.4630 hc         1 0LG       0.034700
     67 H22         11.3420     0.0440     2.8950 hc         1 0LG       0.034700
     68 H23         12.4300    -1.0200     2.0030 hc         1 0LG       0.034700
     69 H24         12.9850    -0.4380    -0.5100 hc         1 0LG       0.034700
     70 H25         12.3070     1.0350    -1.2030 hc         1 0LG       0.034700
     71 H26         13.5400     1.1370     0.0540 hc         1 0LG       0.034700
     72 H27         11.2220    -2.0950     0.3290 ha         1 0LG       0.111000
     73 H28          9.1900    -3.2310    -0.4510 ha         1 0LG       0.113000
     74 H29          7.1280    -1.9450    -0.9010 ha         1 0LG       0.129000
     75 H30          3.3130     1.0670     1.9190 ho         1 0LG       0.430000
     76 H31          1.6920     2.3860     1.0390 h1         1 0LG       0.027200
     77 H32          2.4030     2.8200    -0.5180 h1         1 0LG       0.027200
     78 H33          0.0320     3.9650     1.0080 h1         1 0LG       0.030700
     79 H34          0.5360     4.6430    -0.5450 h1         1 0LG       0.030700
     80 H35         -1.7340     3.9600    -1.5330 ha         1 0LG       0.184000
     81 H36         -2.2750     4.2630     1.4620 ha         1 0LG       0.173000
     82 H37         -4.3670     5.2570     0.3690 hc         1 0LG       0.062700
     83 H38         -4.0620     4.2820    -1.0620 hc         1 0LG       0.062700
     84 H39         -4.7140     3.2810     1.7490 h1         1 0LG       0.069700
     85 H40         -3.5300     1.9090    -0.4790 hn         1 0LG       0.324500
     86 H41         -5.9890     2.2160    -1.6010 ha         1 0LG       0.112000
     87 H42         -8.3310     2.4970    -2.2870 ha         1 0LG       0.113500
     88 H43         -9.9210     3.7150    -0.8300 ha         1 0LG       0.113000
     89 H44         -9.1360     4.6510     1.3240 ha         1 0LG       0.113500
     90 H45         -6.7890     4.3650     2.0130 ha         1 0LG       0.112000
@<TRIPOS>BOND
     1     1     2 2   
     2     2     3 2   
     3     2     4 1   
     4     2     5 1   
     5     4    47 1   
     6     4    48 1   
     7     4    49 1   
     8     5     6 1   
     9     5     7 1   
    10     6    50 1   
    11     6    51 1   
    12     6    52 1   
    13     7     8 ar  
    14     7    10 ar  
    15     8     9 ar  
    16     8    53 1   
    17     9    12 ar  
    18     9    39 1   
    19    10    11 ar  
    20    10    54 1   
    21    11    12 ar  
    22    11    13 1   
    23    12    55 1   
    24    13    14 2   
    25    13    15 1   
    26    15    16 1   
    27    15    56 1   
    28    16    17 1   
    29    16    31 1   
    30    16    57 1   
    31    17    18 1   
    32    17    30 1   
    33    17    58 1   
    34    18    19 1   
    35    18    59 1   
    36    18    60 1   
    37    19    20 1   
    38    19    61 1   
    39    20    21 1   
    40    20    62 1   
    41    20    63 1   
    42    21    22 ar  
    43    21    29 ar  
    44    22    23 ar  
    45    22    64 1   
    46    23    24 1   
    47    23    27 ar  
    48    24    25 1   
    49    24    26 1   
    50    24    65 1   
    51    25    66 1   
    52    25    67 1   
    53    25    68 1   
    54    26    69 1   
    55    26    70 1   
    56    26    71 1   
    57    27    28 ar  
    58    27    72 1   
    59    28    29 ar  
    60    28    73 1   
    61    29    74 1   
    62    30    75 1   
    63    31    32 1   
    64    31    76 1   
    65    31    77 1   
    66    32    33 1   
    67    33    34 1   
    68    33    78 1   
    69    33    79 1   
    70    34    35 2   
    71    34    80 1   
    72    35    36 1   
    73    35    81 1   
    74    36    37 1   
    75    36    82 1   
    76    36    83 1   
    77    37    38 1   
    78    37    41 1   
    79    37    84 1   
    80    38    39 1   
    81    38    85 1   
    82    39    40 2   
    83    41    42 ar  
    84    41    46 ar  
    85    42    43 ar  
    86    42    86 1   
    87    43    44 ar  
    88    43    87 1   
    89    44    45 ar  
    90    44    88 1   
    91    45    46 ar  
    92    45    89 1   
    93    46    90 1   
@<TRIPOS>SUBSTRUCTURE
     1 0LG         1 TEMP              0 ****  ****    0 ROOT
