@<TRIPOS>MOLECULE
0LH
   24    25     1     0     0
SMALL
No Charge or Current Charge


@<TRIPOS>ATOM
      1 CAG          0.3970     2.1060     0.1360 cc         1 0LH      -0.158100
      2 CAF         -0.9650     2.1250    -0.1300 cd         1 0LH      -0.241200
      3 CAJ         -1.5080     0.7910    -0.0960 ca         1 0LH      -0.096800
      4 CAD         -2.8070     0.3110    -0.2990 ca         1 0LH      -0.061000
      5 CAB         -3.0110    -1.0820    -0.1940 ca         1 0LH      -0.142000
      6 CAC         -1.9280    -1.9440     0.1060 ca         1 0LH      -0.095000
      7 CAE         -0.6300    -1.4230     0.3040 ca         1 0LH      -0.129000
      8 CAK         -0.4550    -0.0330     0.1950 ca         1 0LH      -0.049200
      9 NAL          0.6930     0.7420     0.3360 na         1 0LH      -0.092700
     10 CAI          2.0100     0.1570     0.6460 c3         1 0LH       0.075600
     11 CAH          2.7210    -0.4190    -0.6010 c3         1 0LH       0.124800
     12 NAA          4.0560    -0.9870    -0.2890 n8         1 0LH      -0.999200
     13 H1           1.1380     2.8990     0.1950 h4         1 0LH       0.211000
     14 H2          -1.5390     3.0260    -0.3360 ha         1 0LH       0.205000
     15 H3          -3.6280     0.9870    -0.5290 ha         1 0LH       0.113000
     16 H4          -4.0060    -1.4940    -0.3450 ha         1 0LH       0.109000
     17 H5          -2.0960    -3.0160     0.1840 ha         1 0LH       0.108000
     18 H6           0.2020    -2.0840     0.5340 ha         1 0LH       0.109000
     19 H7           2.6400     0.9380     1.0890 h1         1 0LH       0.064200
     20 H8           1.8810    -0.6310     1.3980 h1         1 0LH       0.064200
     21 H9           2.0960    -1.2060    -1.0480 h1         1 0LH       0.042200
     22 H10          2.8450     0.3810    -1.3450 h1         1 0LH       0.042200
     23 H11          3.9430    -1.8100     0.3170 hn         1 0LH       0.398000
     24 H12          4.4640    -1.3790    -1.1480 hn         1 0LH       0.398000
@<TRIPOS>BOND
     1     1     2 2   
     2     1     9 1   
     3     1    13 1   
     4     2     3 1   
     5     2    14 1   
     6     3     4 ar  
     7     3     8 ar  
     8     4     5 ar  
     9     4    15 1   
    10     5     6 ar  
    11     5    16 1   
    12     6     7 ar  
    13     6    17 1   
    14     7     8 ar  
    15     7    18 1   
    16     8     9 1   
    17     9    10 1   
    18    10    11 1   
    19    10    19 1   
    20    10    20 1   
    21    11    12 1   
    22    11    21 1   
    23    11    22 1   
    24    12    23 1   
    25    12    24 1   
@<TRIPOS>SUBSTRUCTURE
     1 0LH         1 TEMP              0 ****  ****    0 ROOT
