@<TRIPOS>MOLECULE
0LH
   24    25     1     0     0
SMALL
abcg2


@<TRIPOS>ATOM
      1 CAG          0.3990     1.9820     0.1380 cc         1 0LH      -0.158100
      2 CAF         -0.9240     2.1240    -0.1660 cd         1 0LH      -0.241200
      3 CAJ         -1.4950     0.8150    -0.1160 ca         1 0LH      -0.096800
      4 CAD         -2.7800     0.3010    -0.3260 ca         1 0LH      -0.061000
      5 CAB         -2.9870    -1.0580    -0.1970 ca         1 0LH      -0.142000
      6 CAC         -1.9330    -1.9220     0.1430 ca         1 0LH      -0.095000
      7 CAE         -0.6540    -1.4440     0.3580 ca         1 0LH      -0.129000
      8 CAK         -0.4480    -0.0710     0.2270 ca         1 0LH      -0.049200
      9 NAL          0.6930     0.6680     0.3850 na         1 0LH      -0.092700
     10 CAI          2.0130     0.1380     0.6450 c3         1 0LH       0.075600
     11 CAH          2.6810    -0.4080    -0.6130 c3         1 0LH       0.124800
     12 NAA          3.9930    -0.9300    -0.2740 n8         1 0LH      -0.999200
     13 H1           1.1730     2.7310     0.2050 h4         1 0LH       0.211000
     14 H2          -1.4280     3.0490    -0.3920 ha         1 0LH       0.205000
     15 H3          -3.5990     0.9600    -0.5890 ha         1 0LH       0.113000
     16 H4          -3.9750    -1.4680    -0.3610 ha         1 0LH       0.109000
     17 H5          -2.1240    -2.9830     0.2350 ha         1 0LH       0.108000
     18 H6           0.1530    -2.1190     0.6140 ha         1 0LH       0.109000
     19 H7           2.6240     0.9320     1.0740 h1         1 0LH       0.064200
     20 H8           1.9310    -0.6460     1.4020 h1         1 0LH       0.064200
     21 H9           2.0150    -1.1430    -1.0870 h1         1 0LH       0.042200
     22 H10          2.8030     0.4090    -1.3270 h1         1 0LH       0.042200
     23 H11          3.8910    -1.8040     0.2260 hn         1 0LH       0.398000
     24 H12          4.4930    -1.1590    -1.1230 hn         1 0LH       0.398000
@<TRIPOS>BOND
     1     1     2 2   
     2     1     9 1   
     3     1    13 1   
     4     2     3 1   
     5     2    14 1   
     6     3     4 ar  
     7     3     8 ar  
     8     4     5 ar  
     9     4    15 1   
    10     5     6 ar  
    11     5    16 1   
    12     6     7 ar  
    13     6    17 1   
    14     7     8 ar  
    15     7    18 1   
    16     8     9 1   
    17     9    10 1   
    18    10    11 1   
    19    10    19 1   
    20    10    20 1   
    21    11    12 1   
    22    11    21 1   
    23    11    22 1   
    24    12    23 1   
    25    12    24 1   
@<TRIPOS>SUBSTRUCTURE
     1 0LH         1 TEMP              0 ****  ****    0 ROOT
