@<TRIPOS>MOLECULE
0LI
   66    70     1     0     0
SMALL
No Charge or Current Charge


@<TRIPOS>ATOM
      1 N1         -10.2050    -0.3470    -0.6820 nc         1 0LI      -0.266600
      2 N3           6.8130    -0.9470    -0.0790 n3         1 0LI      -0.714600
      3 C4          -5.5330     1.0000    -0.2700 cg         1 0LI      -0.085000
      4 C5          -4.2480     1.6360    -0.1640 ca         1 0LI       0.020000
      5 C6          -4.1150     3.0420    -0.2370 ca         1 0LI      -0.025300
      6 C7          -2.8340     3.6120    -0.1280 ca         1 0LI      -0.122000
      7 C8          -1.6970     2.8070     0.0510 ca         1 0LI      -0.076000
      8 C10         -3.1080     0.8290     0.0160 ca         1 0LI      -0.029000
      9 C13          1.9390     0.6370     0.6040 ca         1 0LI      -0.021000
     10 C15          3.5800    -1.1140     1.0140 ca         1 0LI      -0.094000
     11 C17          4.3390     1.1950     0.7470 ca         1 0LI      -0.141300
     12 C21          8.2380    -1.3210     0.1680 c6         1 0LI       0.166800
     13 C22          9.0400    -1.5220    -1.1590 c6         1 0LI       0.164300
     14 C24          6.1700    -1.9470    -0.9880 c6         1 0LI       0.166800
     15 C81        -10.3050    -2.8030    -0.4840 cd         1 0LI      -0.019000
     16 C82         -9.4490    -3.8640    -0.2980 cc         1 0LI      -0.166000
     17 C83         -8.0340    -3.6260    -0.1600 cc         1 0LI       0.305900
     18 N81         -7.3960    -2.4490    -0.1890 nd         1 0LI      -0.450800
     19 N82         -8.2920    -1.4070    -0.3780 na         1 0LI       0.250900
     20 C84         -9.6540    -1.5380    -0.5190 cd         1 0LI      -0.118000
     21 C1          -9.1520     0.5480    -0.6410 cc         1 0LI      -0.012400
     22 C2          -7.9370    -0.0790    -0.4510 cd         1 0LI       0.000200
     23 C3          -6.6280     0.4680    -0.3510 ch         1 0LI      -0.101300
     24 C9          -1.8180     1.3980     0.1260 ca         1 0LI      -0.165600
     25 C11         -5.3270     3.9530    -0.4310 c3         1 0LI      -0.055800
     26 C12         -0.6180     0.4880     0.3190 c          1 0LI       0.625700
     27 O1          -0.7540    -0.7290     0.3810 o          1 0LI      -0.574100
     28 N2           0.6140     1.1240     0.4130 ns         1 0LI      -0.145000
     29 C14          2.2470    -0.7170     0.8330 ca         1 0LI      -0.105000
     30 C16          4.6350    -0.1810     0.9700 ca         1 0LI      -0.054300
     31 C18          2.9850     1.5750     0.5680 ca         1 0LI      -0.131000
     32 C19          5.4460     2.2730     0.7070 c3         1 0LI       0.356300
     33 F1           4.9680     3.5130     0.4480 f          1 0LI      -0.112000
     34 F2           6.1010     2.3650     1.8880 f          1 0LI      -0.112000
     35 F3           6.3720     2.0260    -0.2460 f          1 0LI      -0.112000
     36 C23          6.9740    -2.1520    -2.3120 c6         1 0LI       0.164300
     37 N4           8.4000    -2.5270    -2.0620 n3         1 0LI      -0.718600
     38 H7          -2.7130     4.6920    -0.1820 ha         1 0LI       0.120000
     39 H8          -0.7310     3.2990     0.1300 ha         1 0LI       0.115000
     40 H10         -3.2320    -0.2510     0.0700 ha         1 0LI       0.146000
     41 H15          3.7960    -2.1660     1.1880 ha         1 0LI       0.120000
     42 H20          6.0050    -1.6490     1.7490 h1         1 0LI       0.044700
     43 H20A         6.6150    -0.0110     1.8150 h1         1 0LI       0.044700
     44 H21          8.7370    -0.5420     0.7620 h1         1 0LI       0.038450
     45 H21A         8.2890    -2.2520     0.7510 h1         1 0LI       0.038450
     46 H22          9.1180    -0.5510    -1.6690 h1         1 0LI       0.038950
     47 H22A        10.0630    -1.8360    -0.9060 h1         1 0LI       0.038950
     48 H24          6.0800    -2.9180    -0.4780 h1         1 0LI       0.038450
     49 H24A         5.1520    -1.6280    -1.2540 h1         1 0LI       0.038450
     50 H81        -11.3790    -2.9220    -0.5940 ha         1 0LI       0.150000
     51 H82         -9.8170    -4.8830    -0.2530 ha         1 0LI       0.137000
     52 H83         -7.3600    -4.4590    -0.0140 h4         1 0LI       0.042100
     53 H1          -9.3360     1.6120    -0.7520 h4         1 0LI       0.235000
     54 H11         -6.0450     3.8340     0.3890 hc         1 0LI       0.052033
     55 H11A        -5.0410     5.0110    -0.4650 hc         1 0LI       0.052033
     56 H11B        -5.8460     3.7240    -1.3700 hc         1 0LI       0.052033
     57 HN2          0.5640     2.1300     0.3310 hn         1 0LI       0.157000
     58 H14          1.4760    -1.4790     0.8790 ha         1 0LI       0.152000
     59 H18          2.7310     2.6190     0.3980 ha         1 0LI       0.127000
     60 H23          6.4750    -2.9290    -2.9090 h1         1 0LI       0.038950
     61 H23A         6.9260    -1.2200    -2.8950 h1         1 0LI       0.038950
     62 H25         10.1880    -3.0650    -3.0860 h1         1 0LI       0.030367
     63 H25A         8.6890    -3.5220    -3.9230 h1         1 0LI       0.030367
     64 H25B         9.2130    -1.8210    -3.9040 h1         1 0LI       0.030367
     65 C20          6.0620    -0.7120     1.1780 c3         1 0LI       0.211100
     66 C25          9.1620    -2.7430    -3.3090 c3         1 0LI       0.154100
@<TRIPOS>BOND
     1     1    20 2   
     2     1    21 1   
     3     2    12 1   
     4     2    14 1   
     5     2    65 1   
     6     3     4 1   
     7     3    23 3   
     8     4     5 ar  
     9     4     8 ar  
    10     5     6 ar  
    11     5    25 1   
    12     6     7 ar  
    13     6    38 1   
    14     7    24 ar  
    15     7    39 1   
    16     8    24 ar  
    17     8    40 1   
    18     9    28 1   
    19     9    29 ar  
    20     9    31 ar  
    21    10    29 ar  
    22    10    30 ar  
    23    10    41 1   
    24    11    30 ar  
    25    11    31 ar  
    26    11    32 1   
    27    12    13 1   
    28    12    44 1   
    29    12    45 1   
    30    13    37 1   
    31    13    46 1   
    32    13    47 1   
    33    14    36 1   
    34    14    48 1   
    35    14    49 1   
    36    15    16 2   
    37    15    20 1   
    38    15    50 1   
    39    16    17 1   
    40    16    51 1   
    41    17    18 2   
    42    17    52 1   
    43    18    19 1   
    44    19    20 1   
    45    19    22 1   
    46    21    22 2   
    47    21    53 1   
    48    22    23 1   
    49    24    26 1   
    50    25    54 1   
    51    25    55 1   
    52    25    56 1   
    53    26    27 2   
    54    26    28 1   
    55    28    57 1   
    56    29    58 1   
    57    30    65 1   
    58    31    59 1   
    59    32    33 1   
    60    32    34 1   
    61    32    35 1   
    62    36    37 1   
    63    36    60 1   
    64    36    61 1   
    65    37    66 1   
    66    42    65 1   
    67    43    65 1   
    68    62    66 1   
    69    63    66 1   
    70    64    66 1   
@<TRIPOS>SUBSTRUCTURE
     1 0LI         1 TEMP              0 ****  ****    0 ROOT
