@<TRIPOS>MOLECULE
0LI
   66    70     1     0     0
SMALL
bcc


@<TRIPOS>ATOM
      1 N1         -10.1510     0.0290     0.1030 nc         1 0LI      -0.266600
      2 N3           6.6320    -1.1590    -0.0020 n3         1 0LI      -0.714600
      3 C4          -5.4730     1.0750    -0.4870 cg         1 0LI      -0.085000
      4 C5          -4.1530     1.5480    -0.7100 ca         1 0LI       0.020000
      5 C6          -3.9440     2.8510    -1.1990 ca         1 0LI      -0.025300
      6 C7          -2.6350     3.2660    -1.4060 ca         1 0LI      -0.140000
      7 C8          -1.5580     2.4380    -1.1320 ca         1 0LI      -0.094000
      8 C10         -3.0700     0.7100    -0.4490 ca         1 0LI      -0.047000
      9 C13          1.7490     0.1620     0.2420 ca         1 0LI       0.071600
     10 C15          3.3120    -1.6510     0.2540 ca         1 0LI      -0.112000
     11 C17          4.0030     0.4660     1.0870 ca         1 0LI      -0.141300
     12 C21          7.9660    -1.5870     0.3670 c6         1 0LI       0.166800
     13 C22          8.9780    -1.1590    -0.6770 c6         1 0LI       0.164300
     14 C24          6.2740    -1.6740    -1.3070 c6         1 0LI       0.166800
     15 C81        -10.1350    -2.3780     0.7480 cd         1 0LI      -0.037000
     16 C82         -9.2690    -3.4050     0.9690 cc         1 0LI      -0.249300
     17 C83         -7.8780    -3.1780     0.8220 cc         1 0LI       0.371200
     18 N81         -7.3510    -2.0390     0.4830 nd         1 0LI      -0.450800
     19 N82         -8.2170    -1.0580     0.2740 na         1 0LI       0.200200
     20 C84         -9.5880    -1.1360     0.3810 cd         1 0LI      -0.067300
     21 C1          -9.1360     0.8600    -0.1850 cc         1 0LI       0.037600
     22 C2          -7.9070     0.2270    -0.0920 cd         1 0LI       0.000200
     23 C3          -6.5990     0.6780    -0.3020 ch         1 0LI      -0.101300
     24 C9          -1.7680     1.1510    -0.6430 ca         1 0LI      -0.165600
     25 C11         -5.0990     3.7590    -1.4800 c3         1 0LI      -0.055800
     26 C12         -0.6570     0.1950    -0.3630 c          1 0LI       0.692700
     27 O1          -0.8260    -1.0090    -0.4290 o          1 0LI      -0.574100
     28 N2           0.5240     0.7760    -0.0260 ns         1 0LI      -0.471100
     29 C14          2.0450    -1.1690    -0.0320 ca         1 0LI      -0.123000
     30 C16          4.3200    -0.8700     0.8040 ca         1 0LI      -0.054300
     31 C18          2.7390     0.9640     0.8120 ca         1 0LI      -0.149000
     32 C19          4.9970     1.3830     1.7450 c3         1 0LI       0.720200
     33 F1           4.5110     2.6170     1.9230 f          1 0LI      -0.233300
     34 F2           5.3460     0.9380     2.9640 f          1 0LI      -0.233300
     35 F3           6.1250     1.5180     1.0450 f          1 0LI      -0.233300
     36 C23          7.2920    -1.2440    -2.3460 c6         1 0LI       0.164300
     37 N4           8.6220    -1.6820    -1.9790 n3         1 0LI      -0.718600
     38 H7          -2.4500     4.2590    -1.7970 ha         1 0LI       0.138000
     39 H8          -0.5600     2.8050    -1.3370 ha         1 0LI       0.133000
     40 H10         -3.2550    -0.2910    -0.0830 ha         1 0LI       0.164000
     41 H15          3.5280    -2.6880     0.0270 ha         1 0LI       0.138000
     42 H20          5.5230    -2.5940     1.0970 h1         1 0LI       0.044700
     43 H20A         6.0880    -1.2040     1.9910 h1         1 0LI       0.044700
     44 H21          8.2330    -1.1340     1.3250 h1         1 0LI       0.038450
     45 H21A         8.0270    -2.6820     0.4990 h1         1 0LI       0.038450
     46 H22          9.0460    -0.0570    -0.6830 h1         1 0LI       0.038950
     47 H22A         9.9630    -1.5390    -0.3940 h1         1 0LI       0.038950
     48 H24          6.1960    -2.7760    -1.3070 h1         1 0LI       0.038450
     49 H24A         5.2980    -1.2850    -1.6000 h1         1 0LI       0.038450
     50 H81        -11.2070    -2.4850     0.8430 ha         1 0LI       0.168000
     51 H82         -9.6180    -4.3870     1.2540 ha         1 0LI       0.155000
     52 H83         -7.1700    -3.9780     0.9930 h4         1 0LI       0.042100
     53 H1          -9.2990     1.8930    -0.4530 h4         1 0LI       0.185000
     54 H11         -5.6200     4.0240    -0.5580 hc         1 0LI       0.052033
     55 H11A        -4.7680     4.6800    -1.9570 hc         1 0LI       0.052033
     56 H11B        -5.8330     3.2830    -2.1320 hc         1 0LI       0.052033
     57 HN2          0.5100     1.7710     0.1360 hn         1 0LI       0.323500
     58 H14          1.3150    -1.8300    -0.4670 ha         1 0LI       0.170000
     59 H18          2.4970     1.9930     1.0420 ha         1 0LI       0.145000
     60 H23          7.0210    -1.6850    -3.3090 h1         1 0LI       0.038950
     61 H23A         7.2410    -0.1480    -2.4660 h1         1 0LI       0.038950
     62 H25         10.5790    -1.7200    -2.7050 h1         1 0LI       0.030367
     63 H25A         9.3240    -1.7770    -3.9430 h1         1 0LI       0.030367
     64 H25B         9.6970    -0.2460    -3.1360 h1         1 0LI       0.030367
     65 C20          5.6720    -1.5030     1.0280 c3         1 0LI       0.211100
     66 C25          9.5980    -1.3330    -2.9840 c3         1 0LI       0.154100
@<TRIPOS>BOND
     1     1    20 2   
     2     1    21 1   
     3     2    12 1   
     4     2    14 1   
     5     2    65 1   
     6     3     4 1   
     7     3    23 3   
     8     4     5 ar  
     9     4     8 ar  
    10     5     6 ar  
    11     5    25 1   
    12     6     7 ar  
    13     6    38 1   
    14     7    24 ar  
    15     7    39 1   
    16     8    24 ar  
    17     8    40 1   
    18     9    28 1   
    19     9    29 ar  
    20     9    31 ar  
    21    10    29 ar  
    22    10    30 ar  
    23    10    41 1   
    24    11    30 ar  
    25    11    31 ar  
    26    11    32 1   
    27    12    13 1   
    28    12    44 1   
    29    12    45 1   
    30    13    37 1   
    31    13    46 1   
    32    13    47 1   
    33    14    36 1   
    34    14    48 1   
    35    14    49 1   
    36    15    16 2   
    37    15    20 1   
    38    15    50 1   
    39    16    17 1   
    40    16    51 1   
    41    17    18 2   
    42    17    52 1   
    43    18    19 1   
    44    19    20 1   
    45    19    22 1   
    46    21    22 2   
    47    21    53 1   
    48    22    23 1   
    49    24    26 1   
    50    25    54 1   
    51    25    55 1   
    52    25    56 1   
    53    26    27 2   
    54    26    28 1   
    55    28    57 1   
    56    29    58 1   
    57    30    65 1   
    58    31    59 1   
    59    32    33 1   
    60    32    34 1   
    61    32    35 1   
    62    36    37 1   
    63    36    60 1   
    64    36    61 1   
    65    37    66 1   
    66    42    65 1   
    67    43    65 1   
    68    62    66 1   
    69    63    66 1   
    70    64    66 1   
@<TRIPOS>SUBSTRUCTURE
     1 0LI         1 TEMP              0 ****  ****    0 ROOT
