@<TRIPOS>MOLECULE
0LJ
   44    46     1     0     0
SMALL
No Charge or Current Charge


@<TRIPOS>ATOM
      1 C10         -1.0480    -0.4050    -0.0130 c          1 0LJ       0.526100
      2 C15          2.7990    -0.7550    -0.4880 c5         1 0LJ       0.154000
      3 C17          4.1450     0.3070     1.3920 c5         1 0LJ      -0.075100
      4 C21          5.4130    -1.9020     1.9220 ca         1 0LJ      -0.099000
      5 C22          5.5940    -3.2620     1.6060 ca         1 0LJ      -0.097000
      6 C24          3.9100    -3.0850    -0.1570 ca         1 0LJ      -0.069000
      7 C01         -5.5710     1.3020    -1.3110 ca         1 0LJ      -0.049000
      8 C02         -6.2540     0.6590    -0.2660 ca         1 0LJ       0.040000
      9 C03         -5.5340    -0.1280     0.6520 ca         1 0LJ       0.208000
     10 C04         -4.1420    -0.2740     0.5280 ca         1 0LJ      -0.175000
     11 C05         -3.4490     0.3700    -0.5220 ca         1 0LJ       0.006000
     12 C06         -4.1780     1.1560    -1.4360 ca         1 0LJ      -0.171000
     13 F08         -6.1770    -0.7530     1.6640 f          1 0LJ      -0.157000
     14 N09         -2.0430     0.2710    -0.7130 ns         1 0LJ      -0.118000
     15 O11         -1.2380    -1.0980     0.9880 o          1 0LJ      -0.574100
     16 C12          0.4090    -0.1940    -0.6430 c          1 0LJ       0.525100
     17 N13          1.4270    -0.8630     0.0250 ns         1 0LJ      -0.464900
     18 O14          0.6120     0.5050    -1.6350 o          1 0LJ      -0.604100
     19 C16          3.3460     0.6410     0.0650 c5         1 0LJ       0.215500
     20 C18          4.4820    -1.1500     1.1880 ca         1 0LJ      -0.082300
     21 C19          3.7460    -1.7290     0.1710 ca         1 0LJ      -0.139300
     22 N20          4.4140     1.0220    -0.9140 nu         1 0LJ      -0.944400
     23 C23          4.8430    -3.8530     0.5680 ca         1 0LJ      -0.116000
     24 C25          4.4330     2.3220    -1.0450 c2         1 0LJ       0.796100
     25 N26          3.7710     2.7810    -1.9810 n2         1 0LJ      -0.899100
     26 N27          5.7000     2.5860    -0.9140 nv         1 0LJ      -1.018200
     27 H1           2.8470    -0.8190    -1.5850 h1         1 0LJ       0.101700
     28 H2           5.0250     0.9400     1.5510 hc         1 0LJ       0.069200
     29 H3           3.5010     0.4330     2.2690 hc         1 0LJ       0.069200
     30 H4           5.9870    -1.4420     2.7240 ha         1 0LJ       0.119000
     31 H5           6.3120    -3.8590     2.1640 ha         1 0LJ       0.116000
     32 H6           3.3270    -3.5350    -0.9570 ha         1 0LJ       0.132000
     33 H7          -6.1220     1.9120    -2.0240 ha         1 0LJ       0.134000
     34 H8          -3.6290    -0.8900     1.2580 ha         1 0LJ       0.167000
     35 H9          -3.6640     1.6600    -2.2510 ha         1 0LJ       0.125000
     36 H10         -1.6980     0.7910    -1.5110 hn         1 0LJ       0.187000
     37 H11          1.1680    -1.4230     0.8310 hn         1 0LJ       0.346500
     38 H12          2.5610     1.4020     0.2010 h1         1 0LJ       0.079700
     39 H13          5.3580     0.7210    -0.7190 hn         1 0LJ       0.476000
     40 H14          4.9830    -4.9040     0.3260 ha         1 0LJ       0.118000
     41 H15          3.0810     2.0480    -2.1760 hn         1 0LJ       0.384400
     42 H16          5.8970     2.9590     0.0040 hn         1 0LJ       0.460500
     43 H17          5.9710     3.2310    -1.6410 hn         1 0LJ       0.460500
     44 Cl7         -8.0010     0.8500    -0.1210 cl         1 0LJ      -0.165000
@<TRIPOS>BOND
     1     1    14 1   
     2     1    15 2   
     3     1    16 1   
     4     2    17 1   
     5     2    19 1   
     6     2    21 1   
     7     2    27 1   
     8     3    19 1   
     9     3    20 1   
    10     3    28 1   
    11     3    29 1   
    12     4     5 ar  
    13     4    20 ar  
    14     4    30 1   
    15     5    23 ar  
    16     5    31 1   
    17     6    21 ar  
    18     6    23 ar  
    19     6    32 1   
    20     7     8 ar  
    21     7    12 ar  
    22     7    33 1   
    23     8     9 ar  
    24     8    44 1   
    25     9    10 ar  
    26     9    13 1   
    27    10    11 ar  
    28    10    34 1   
    29    11    12 ar  
    30    11    14 1   
    31    12    35 1   
    32    14    36 1   
    33    16    17 1   
    34    16    18 2   
    35    17    37 1   
    36    19    22 1   
    37    19    38 1   
    38    20    21 ar  
    39    22    24 1   
    40    22    39 1   
    41    23    40 1   
    42    24    25 2   
    43    24    26 1   
    44    25    41 1   
    45    26    42 1   
    46    26    43 1   
@<TRIPOS>SUBSTRUCTURE
     1 0LJ         1 TEMP              0 ****  ****    0 ROOT
