@<TRIPOS>MOLECULE
0LJ
   44    46     1     0     0
SMALL
bcc


@<TRIPOS>ATOM
      1 C10         -1.0380     0.1520    -0.1180 c          1 0LJ       0.593100
      2 C15          2.7180     0.1270    -0.5750 c5         1 0LJ       0.154000
      3 C17          4.0530     0.4700     1.4310 c5         1 0LJ      -0.075100
      4 C21          4.6190    -2.0640     1.7110 ca         1 0LJ      -0.117000
      5 C22          4.4470    -3.3400     1.1820 ca         1 0LJ      -0.115000
      6 C24          3.1010    -2.4560    -0.6160 ca         1 0LJ      -0.087000
      7 C01         -5.6760    -0.7110    -1.3250 ca         1 0LJ      -0.067000
      8 C02         -6.2010    -0.1390    -0.1760 ca         1 0LJ      -0.051600
      9 C03         -5.3280     0.3840     0.7610 ca         1 0LJ       0.172900
     10 C04         -3.9580     0.3560     0.5930 ca         1 0LJ      -0.193000
     11 C05         -3.4380    -0.2190    -0.5650 ca         1 0LJ       0.098600
     12 C06         -4.3090    -0.7510    -1.5180 ca         1 0LJ      -0.189000
     13 F08         -5.8250     0.9370     1.8680 f          1 0LJ      -0.121900
     14 N09         -2.0760    -0.3000    -0.8410 ns         1 0LJ      -0.444100
     15 O11         -1.0890     0.7270     0.9520 o          1 0LJ      -0.574100
     16 C12          0.3040    -0.1440    -0.8080 c          1 0LJ       0.592100
     17 N13          1.3490     0.3220    -0.1340 ns         1 0LJ      -0.531900
     18 O14          0.3480    -0.7420    -1.8720 o          1 0LJ      -0.604100
     19 C16          3.6460     1.1530     0.1080 c5         1 0LJ       0.215500
     20 C18          4.0270    -0.9880     1.0690 ca         1 0LJ      -0.082300
     21 C19          3.2750    -1.1900    -0.0840 ca         1 0LJ      -0.139300
     22 N20          4.7700     1.3960    -0.7650 nu         1 0LJ      -0.889200
     23 C23          3.6960    -3.5360     0.0280 ca         1 0LJ      -0.134000
     24 C25          5.7000     2.3660    -0.4780 c2         1 0LJ       0.796100
     25 N26          5.5630     3.3430     0.3420 n2         1 0LJ      -0.899100
     26 N27          6.8410     2.2760    -1.2420 nv         1 0LJ      -0.907800
     27 H1           2.7450     0.2310    -1.6610 h1         1 0LJ       0.101700
     28 H2           5.0190     0.8200     1.7970 hc         1 0LJ       0.069200
     29 H3           3.3220     0.6800     2.2190 hc         1 0LJ       0.069200
     30 H4           5.2130    -1.9200     2.6060 ha         1 0LJ       0.137000
     31 H5           4.9100    -4.1880     1.6700 ha         1 0LJ       0.134000
     32 H6           2.5170    -2.6050    -1.5160 ha         1 0LJ       0.150000
     33 H7          -6.3390    -1.1240    -2.0730 ha         1 0LJ       0.152000
     34 H8          -3.3310     0.7810     1.3610 ha         1 0LJ       0.185000
     35 H9          -3.9170    -1.1980    -2.4220 ha         1 0LJ       0.143000
     36 H10         -1.8220    -0.7560    -1.7080 hn         1 0LJ       0.353500
     37 H11          1.1720     0.7590     0.7600 hn         1 0LJ       0.346500
     38 H12          3.1150     2.0930     0.2710 h1         1 0LJ       0.079700
     39 H13          5.1100     0.5930    -1.2740 hn         1 0LJ       0.420800
     40 H14          3.5800    -4.5340    -0.3750 ha         1 0LJ       0.136000
     41 H15          4.6530     3.3460     0.7850 hn         1 0LJ       0.384400
     42 H16          7.1570     1.3490    -1.4820 hn         1 0LJ       0.405300
     43 H17          7.5920     2.8570    -0.9080 hn         1 0LJ       0.405300
     44 CL7         -7.8990    -0.0680     0.0970 cl         1 0LJ      -0.073400
@<TRIPOS>BOND
     1     1    14 1   
     2     1    15 2   
     3     1    16 1   
     4     2    17 1   
     5     2    19 1   
     6     2    21 1   
     7     2    27 1   
     8     3    19 1   
     9     3    20 1   
    10     3    28 1   
    11     3    29 1   
    12     4     5 ar  
    13     4    20 ar  
    14     4    30 1   
    15     5    23 ar  
    16     5    31 1   
    17     6    21 ar  
    18     6    23 ar  
    19     6    32 1   
    20     7     8 ar  
    21     7    12 ar  
    22     7    33 1   
    23     8     9 ar  
    24     8    44 1   
    25     9    10 ar  
    26     9    13 1   
    27    10    11 ar  
    28    10    34 1   
    29    11    12 ar  
    30    11    14 1   
    31    12    35 1   
    32    14    36 1   
    33    16    17 1   
    34    16    18 2   
    35    17    37 1   
    36    19    22 1   
    37    19    38 1   
    38    20    21 ar  
    39    22    24 1   
    40    22    39 1   
    41    23    40 1   
    42    24    25 2   
    43    24    26 1   
    44    25    41 1   
    45    26    42 1   
    46    26    43 1   
@<TRIPOS>SUBSTRUCTURE
     1 0LJ         1 TEMP              0 ****  ****    0 ROOT
