@<TRIPOS>MOLECULE
0LK
   44    46     1     0     0
SMALL
No Charge or Current Charge


@<TRIPOS>ATOM
      1 C13         -0.7810    -0.4380    -0.1820 c          1 0LK       0.525100
      2 C15         -3.1860     0.4090     0.1700 ca         1 0LK       0.010000
      3 C20         -5.9680     0.7400    -0.2420 ca         1 0LK       0.040000
      4 C21         -5.3190     1.4160     0.8070 ca         1 0LK       0.210000
      5 C22         -3.9390     1.2510     1.0100 ca         1 0LK      -0.203000
      6 C01          4.8950    -4.0640    -0.4420 ca         1 0LK      -0.112000
      7 C02          3.8300    -3.2460    -0.0170 ca         1 0LK      -0.080000
      8 C03          4.0270    -1.8560     0.0460 ca         1 0LK      -0.121300
      9 C04          5.2450    -1.2940    -0.2910 ca         1 0LK      -0.073300
     10 C05          6.3180    -2.0940    -0.7130 ca         1 0LK      -0.095000
     11 C06          6.1370    -3.4890    -0.7900 ca         1 0LK      -0.100000
     12 C07          3.0340    -0.8120     0.4890 c5         1 0LK       0.147000
     13 C08          3.6820     0.4660    -0.2040 c5         1 0LK       0.210500
     14 C09          5.2390     0.2070    -0.1350 c5         1 0LK      -0.059100
     15 N10          3.3900     1.6160     0.7120 nu         1 0LK      -0.893400
     16 N11          1.6840    -0.9380    -0.0790 ns         1 0LK      -0.455900
     17 C12          0.6460    -0.2260     0.5100 c          1 0LK       0.531100
     18 N14         -1.7930     0.2900     0.4340 ns         1 0LK      -0.120000
     19 O16         -0.9370    -1.1740    -1.1590 o          1 0LK      -0.574100
     20 O17          0.8120     0.5090     1.4840 o          1 0LK      -0.607100
     21 C18         -3.8430    -0.2680    -0.8830 ca         1 0LK      -0.145000
     22 C19         -5.2260    -0.1020    -1.0860 ca         1 0LK      -0.052000
     23 Cl          -7.7000     0.9360    -0.5110 cl         1 0LK      -0.167000
     24 F24         -6.0170     2.2310     1.6310 f          1 0LK      -0.159000
     25 C25          3.3200     2.7650     0.0440 c2         1 0LK       0.798100
     26 N26          2.7460     3.5750     0.8890 nv         1 0LK      -1.067200
     27 N27          4.0170     3.1020    -0.9350 n2         1 0LK      -0.898100
     28 H1          -3.4590     1.7830     1.8280 ha         1 0LK       0.138000
     29 H3           2.8740    -3.6850     0.2600 ha         1 0LK       0.121000
     30 H4           7.2730    -1.6460    -0.9750 ha         1 0LK       0.118000
     31 H5           6.9570    -4.1250    -1.1160 ha         1 0LK       0.115000
     32 H6           3.0420    -0.7450     1.5870 h1         1 0LK       0.087700
     33 H7           3.3290     0.5760    -1.2420 h1         1 0LK       0.100700
     34 H8           5.6770     0.5050     0.8250 hc         1 0LK       0.064200
     35 H9           5.7810     0.7280    -0.9310 hc         1 0LK       0.064200
     36 H10          2.5500     1.5140     1.2760 hn         1 0LK       0.470000
     37 H11          1.4550    -1.5240    -0.8760 hn         1 0LK       0.347500
     38 H12         -1.4760     0.8390     1.2240 hn         1 0LK       0.187000
     39 H13         -3.3040    -0.9270    -1.5570 ha         1 0LK       0.155000
     40 H14         -5.7230    -0.6260    -1.8990 ha         1 0LK       0.134000
     41 H15          3.0440     3.3530     1.8270 hn         1 0LK       0.454500
     42 H16          2.8690     4.5500     0.6570 hn         1 0LK       0.454500
     43 H17          3.8650     4.1010    -1.1020 hn         1 0LK       0.382400
     44 H2           4.7620    -5.1420    -0.4990 ha         1 0LK       0.116000
@<TRIPOS>BOND
     1     1    17 1   
     2     1    18 1   
     3     1    19 2   
     4     2     5 ar  
     5     2    18 1   
     6     2    21 ar  
     7     3     4 ar  
     8     3    22 ar  
     9     3    23 1   
    10     4     5 ar  
    11     4    24 1   
    12     5    28 1   
    13     6     7 ar  
    14     6    11 ar  
    15     6    44 1   
    16     7     8 ar  
    17     7    29 1   
    18     8     9 ar  
    19     8    12 1   
    20     9    10 ar  
    21     9    14 1   
    22    10    11 ar  
    23    10    30 1   
    24    11    31 1   
    25    12    13 1   
    26    12    16 1   
    27    12    32 1   
    28    13    14 1   
    29    13    15 1   
    30    13    33 1   
    31    14    34 1   
    32    14    35 1   
    33    15    25 1   
    34    15    36 1   
    35    16    17 1   
    36    16    37 1   
    37    17    20 2   
    38    18    38 1   
    39    21    22 ar  
    40    21    39 1   
    41    22    40 1   
    42    25    26 1   
    43    25    27 2   
    44    26    41 1   
    45    26    42 1   
    46    27    43 1   
@<TRIPOS>SUBSTRUCTURE
     1 0LK         1 TEMP              0 ****  ****    0 ROOT
