@<TRIPOS>MOLECULE
0LK
   44    46     1     0     0
SMALL
bcc


@<TRIPOS>ATOM
      1 C13         -0.7870    -0.3020    -0.1530 c          1 0LK       0.592100
      2 C15         -3.1850     0.1640     0.2240 ca         1 0LK       0.102600
      3 C20         -5.9220     0.3310    -0.2980 ca         1 0LK      -0.051600
      4 C21         -5.4010     0.7590     0.9120 ca         1 0LK       0.174900
      5 C22         -4.0550     0.6830     1.1840 ca         1 0LK      -0.221000
      6 C01          4.3360    -4.0090    -0.3770 ca         1 0LK      -0.130000
      7 C02          3.3840    -3.0590    -0.0240 ca         1 0LK      -0.098000
      8 C03          3.7660    -1.7300     0.0460 ca         1 0LK      -0.121300
      9 C04          5.0750    -1.3400    -0.2250 ca         1 0LK      -0.073300
     10 C05          6.0240    -2.2880    -0.5740 ca         1 0LK      -0.113000
     11 C06          5.6460    -3.6260    -0.6490 ca         1 0LK      -0.118000
     12 C07          2.9410    -0.5310     0.4240 c5         1 0LK       0.147000
     13 C08          3.7660     0.6360    -0.1520 c5         1 0LK       0.210500
     14 C09          5.2240     0.1450    -0.0630 c5         1 0LK      -0.059100
     15 N10          3.4570     1.8760     0.4950 nu         1 0LK      -0.838200
     16 N11          1.5870    -0.5760    -0.0630 ns         1 0LK      -0.522900
     17 C12          0.5280    -0.1830     0.6380 c          1 0LK       0.598100
     18 N14         -1.8370     0.1150     0.5740 ns         1 0LK      -0.446100
     19 O16         -0.8090    -0.7300    -1.2910 o          1 0LK      -0.574100
     20 O17          0.5300     0.2240     1.7880 o          1 0LK      -0.607100
     21 C18         -3.6940    -0.2700    -1.0000 ca         1 0LK      -0.163000
     22 C19         -5.0560    -0.1830    -1.2470 ca         1 0LK      -0.070000
     23 CL          -7.6140     0.4450    -0.5900 cl         1 0LK      -0.075400
     24 F24         -6.2250     1.2560     1.8340 f          1 0LK      -0.123900
     25 C25          3.7650     3.0740    -0.0970 c2         1 0LK       0.798100
     26 N26          3.5310     4.1670     0.7070 nv         1 0LK      -0.956800
     27 N27          4.1490     3.1160    -1.3200 n2         1 0LK      -0.898100
     28 H1          -3.6880     1.0300     2.1420 ha         1 0LK       0.156000
     29 H3           2.3640    -3.3570     0.1890 ha         1 0LK       0.139000
     30 H4           7.0430    -1.9960    -0.7930 ha         1 0LK       0.136000
     31 H5           6.3770    -4.3750    -0.9250 ha         1 0LK       0.133000
     32 H6           2.8970    -0.4490     1.5150 h1         1 0LK       0.087700
     33 H7           3.5090     0.7410    -1.2080 h1         1 0LK       0.100700
     34 H8           5.6410     0.3850     0.9200 hc         1 0LK       0.064200
     35 H9           5.8630     0.6120    -0.8130 hc         1 0LK       0.064200
     36 H10          3.4780     1.8540     1.5040 hn         1 0LK       0.414800
     37 H11          1.4350    -0.8590    -1.0210 hn         1 0LK       0.347500
     38 H12         -1.6010     0.4460     1.5010 hn         1 0LK       0.353500
     39 H13         -3.0540    -0.6760    -1.7650 ha         1 0LK       0.173000
     40 H14         -5.4440    -0.5230    -2.1970 ha         1 0LK       0.152000
     41 H15          3.5360     4.0180     1.7050 hn         1 0LK       0.399300
     42 H16          4.0270     5.0040     0.4490 hn         1 0LK       0.399300
     43 H17          4.2640     4.0770    -1.6230 hn         1 0LK       0.382400
     44 H2           4.0580    -5.0530    -0.4420 ha         1 0LK       0.134000
@<TRIPOS>BOND
     1     1    17 1   
     2     1    18 1   
     3     1    19 2   
     4     2     5 ar  
     5     2    18 1   
     6     2    21 ar  
     7     3     4 ar  
     8     3    22 ar  
     9     3    23 1   
    10     4     5 ar  
    11     4    24 1   
    12     5    28 1   
    13     6     7 ar  
    14     6    11 ar  
    15     6    44 1   
    16     7     8 ar  
    17     7    29 1   
    18     8     9 ar  
    19     8    12 1   
    20     9    10 ar  
    21     9    14 1   
    22    10    11 ar  
    23    10    30 1   
    24    11    31 1   
    25    12    13 1   
    26    12    16 1   
    27    12    32 1   
    28    13    14 1   
    29    13    15 1   
    30    13    33 1   
    31    14    34 1   
    32    14    35 1   
    33    15    25 1   
    34    15    36 1   
    35    16    17 1   
    36    16    37 1   
    37    17    20 2   
    38    18    38 1   
    39    21    22 ar  
    40    21    39 1   
    41    22    40 1   
    42    25    26 1   
    43    25    27 2   
    44    26    41 1   
    45    26    42 1   
    46    27    43 1   
@<TRIPOS>SUBSTRUCTURE
     1 0LK         1 TEMP              0 ****  ****    0 ROOT
