@<TRIPOS>MOLECULE
0LL
   39    41     1     0     0
SMALL
No Charge or Current Charge


@<TRIPOS>ATOM
      1 C13         -0.3910    -0.4550     0.1830 c          1 0LL       0.524100
      2 C15         -2.8530    -0.2350    -0.5360 ca         1 0LL       0.007000
      3 C20         -5.6510     0.1460    -0.3360 ca         1 0LL       0.040000
      4 C21         -4.8430     0.1960     0.8150 ca         1 0LL       0.208000
      5 C22         -3.4550     0.0070     0.7200 ca         1 0LL      -0.176000
      6 C01          4.9580     2.3920    -1.4240 ca         1 0LL      -0.117000
      7 C02          4.1520     1.2370    -1.4480 ca         1 0LL      -0.073000
      8 C03          4.2320     0.3310    -0.3770 ca         1 0LL      -0.108300
      9 C04          5.0800     0.5620     0.6870 ca         1 0LL      -0.065300
     10 C05          5.8880     1.7100     0.7300 ca         1 0LL      -0.101000
     11 C06          5.8250     2.6290    -0.3360 ca         1 0LL      -0.100000
     12 C07          3.4470    -0.9450    -0.2210 c5         1 0LL       0.161000
     13 C08          4.2520    -1.6760     0.9490 c5         1 0LL       0.147500
     14 C09          4.9980    -0.5200     1.7340 c5         1 0LL      -0.034100
     15 N10          5.2050    -2.6930     0.4470 n8         1 0LL      -0.990200
     16 N11          2.1030    -0.7360     0.3360 ns         1 0LL      -0.467900
     17 C12          1.0170    -0.7250    -0.5300 c          1 0LL       0.524100
     18 N14         -1.4560    -0.4360    -0.7130 ns         1 0LL      -0.119000
     19 O16         -0.4920    -0.2850     1.4000 o          1 0LL      -0.575100
     20 O17          1.1270    -0.9040    -1.7430 o          1 0LL      -0.606100
     21 C18         -3.6700    -0.2830    -1.6820 ca         1 0LL      -0.171000
     22 C19         -5.0610    -0.0940    -1.5860 ca         1 0LL      -0.049000
     23 Cl          -7.3960     0.3820    -0.2280 cl         1 0LL      -0.167000
     24 F24         -5.3980     0.4260     2.0280 f          1 0LL      -0.158000
     25 H1          -2.8720     0.0540     1.6330 ha         1 0LL       0.167000
     26 H3           3.4780     1.0500    -2.2810 ha         1 0LL       0.127000
     27 H4           6.5510     1.8880     1.5740 ha         1 0LL       0.114000
     28 H5           6.4440     3.5230    -0.3190 ha         1 0LL       0.112000
     29 H6           3.4480    -1.5430    -1.1430 h1         1 0LL       0.093700
     30 H7           3.5760    -2.2200     1.6250 h1         1 0LL       0.033700
     31 H8           5.9820    -0.8250     2.1080 hc         1 0LL       0.058200
     32 H9           4.4120    -0.1870     2.5980 hc         1 0LL       0.058200
     33 H10          5.7100    -3.1030     1.2420 hn         1 0LL       0.400000
     34 H11          4.6810    -3.4900     0.0660 hn         1 0LL       0.400000
     35 H13          1.9140    -0.5600     1.3180 hn         1 0LL       0.343500
     36 H14         -1.1820    -0.5950    -1.6750 hn         1 0LL       0.187000
     37 H15         -3.2270    -0.4680    -2.6590 ha         1 0LL       0.126000
     38 H16         -5.6790    -0.1330    -2.4800 ha         1 0LL       0.134000
     39 H2           4.9100     3.1050    -2.2440 ha         1 0LL       0.114000
@<TRIPOS>BOND
     1     1    17 1   
     2     1    18 1   
     3     1    19 2   
     4     2     5 ar  
     5     2    18 1   
     6     2    21 ar  
     7     3     4 ar  
     8     3    22 ar  
     9     3    23 1   
    10     4     5 ar  
    11     4    24 1   
    12     5    25 1   
    13     6     7 ar  
    14     6    11 ar  
    15     6    39 1   
    16     7     8 ar  
    17     7    26 1   
    18     8     9 ar  
    19     8    12 1   
    20     9    10 ar  
    21     9    14 1   
    22    10    11 ar  
    23    10    27 1   
    24    11    28 1   
    25    12    13 1   
    26    12    16 1   
    27    12    29 1   
    28    13    14 1   
    29    13    15 1   
    30    13    30 1   
    31    14    31 1   
    32    14    32 1   
    33    15    33 1   
    34    15    34 1   
    35    16    17 1   
    36    16    35 1   
    37    17    20 2   
    38    18    36 1   
    39    21    22 ar  
    40    21    37 1   
    41    22    38 1   
@<TRIPOS>SUBSTRUCTURE
     1 0LL         1 TEMP              0 ****  ****    0 ROOT
