@<TRIPOS>MOLECULE
0LL
   39    41     1     0     0
SMALL
abcg2


@<TRIPOS>ATOM
      1 C13         -0.3290    -0.5530     0.1290 c          1 0LL       0.524100
      2 C15         -2.6790    -0.2050    -0.5460 ca         1 0LL       0.007000
      3 C20         -5.4080     0.3190    -0.2900 ca         1 0LL       0.040000
      4 C21         -4.5970     0.1760     0.8210 ca         1 0LL       0.208000
      5 C22         -3.2450    -0.0840     0.7220 ca         1 0LL      -0.176000
      6 C01          4.7150     2.2200    -1.4930 ca         1 0LL      -0.117000
      7 C02          4.0130     1.0180    -1.4930 ca         1 0LL      -0.073000
      8 C03          4.0960     0.2010    -0.3780 ca         1 0LL      -0.108300
      9 C04          4.8620     0.5640     0.7250 ca         1 0LL      -0.065300
     10 C05          5.5570     1.7630     0.7270 ca         1 0LL      -0.101000
     11 C06          5.4790     2.5880    -0.3910 ca         1 0LL      -0.100000
     12 C07          3.4090    -1.1180    -0.1190 c5         1 0LL       0.161000
     13 C08          4.2370    -1.7150     1.0400 c5         1 0LL       0.147500
     14 C09          4.7720    -0.4870     1.7950 c5         1 0LL      -0.034100
     15 N10          5.3570    -2.4330     0.4580 n8         1 0LL      -0.990200
     16 N11          2.0310    -0.9180     0.2960 ns         1 0LL      -0.467900
     17 C12          1.0210    -0.8170    -0.5590 c          1 0LL       0.524100
     18 N14         -1.3290    -0.4650    -0.7640 ns         1 0LL      -0.119000
     19 O16         -0.4180    -0.4410     1.3360 o          1 0LL      -0.575100
     20 O17          1.0960    -0.9190    -1.7740 o          1 0LL      -0.606100
     21 C18         -3.4880    -0.0650    -1.6760 ca         1 0LL      -0.171000
     22 C19         -4.8390     0.1950    -1.5480 ca         1 0LL      -0.049000
     23 CL          -7.0870     0.6420    -0.0930 cl         1 0LL      -0.167000
     24 F24         -5.1380     0.2890     2.0350 f          1 0LL      -0.158000
     25 H1          -2.6650    -0.1890     1.6250 ha         1 0LL       0.167000
     26 H3           3.4180     0.7300    -2.3500 ha         1 0LL       0.127000
     27 H4           6.1590     2.0540     1.5800 ha         1 0LL       0.114000
     28 H5           6.0240     3.5240    -0.4050 ha         1 0LL       0.112000
     29 H6           3.4080    -1.7790    -0.9880 h1         1 0LL       0.093700
     30 H7           3.6020    -2.3380     1.6830 h1         1 0LL       0.033700
     31 H8           5.7260    -0.6930     2.2840 hc         1 0LL       0.058200
     32 H9           4.0780    -0.1760     2.5820 hc         1 0LL       0.058200
     33 H10          5.9570    -2.7760     1.1980 hn         1 0LL       0.400000
     34 H11          5.0220    -3.2540    -0.0310 hn         1 0LL       0.400000
     35 H13          1.8340    -0.7660     1.2750 hn         1 0LL       0.343500
     36 H14         -1.0470    -0.5820    -1.7290 hn         1 0LL       0.187000
     37 H15         -3.0600    -0.1590    -2.6660 ha         1 0LL       0.126000
     38 H16         -5.4530     0.3050    -2.4310 ha         1 0LL       0.134000
     39 H2           4.6720     2.8710    -2.3570 ha         1 0LL       0.114000
@<TRIPOS>BOND
     1     1    17 1   
     2     1    18 1   
     3     1    19 2   
     4     2     5 ar  
     5     2    18 1   
     6     2    21 ar  
     7     3     4 ar  
     8     3    22 ar  
     9     3    23 1   
    10     4     5 ar  
    11     4    24 1   
    12     5    25 1   
    13     6     7 ar  
    14     6    11 ar  
    15     6    39 1   
    16     7     8 ar  
    17     7    26 1   
    18     8     9 ar  
    19     8    12 1   
    20     9    10 ar  
    21     9    14 1   
    22    10    11 ar  
    23    10    27 1   
    24    11    28 1   
    25    12    13 1   
    26    12    16 1   
    27    12    29 1   
    28    13    14 1   
    29    13    15 1   
    30    13    30 1   
    31    14    31 1   
    32    14    32 1   
    33    15    33 1   
    34    15    34 1   
    35    16    17 1   
    36    16    35 1   
    37    17    20 2   
    38    18    36 1   
    39    21    22 ar  
    40    21    37 1   
    41    22    38 1   
@<TRIPOS>SUBSTRUCTURE
     1 0LL         1 TEMP              0 ****  ****    0 ROOT
