@<TRIPOS>MOLECULE
0LM
   50    51     1     0     0
SMALL
bcc


@<TRIPOS>ATOM
      1 C10          0.4370    -0.3230    -0.5510 c          1 0LM       0.589100
      2 C13          2.8490     0.1150    -0.4030 c6         1 0LM       0.117700
      3 C15          5.1710     1.1570    -0.5140 c6         1 0LM       0.222200
      4 C17          4.8940    -1.1500     0.4500 c6         1 0LM       0.222200
      5 C20          5.1490    -2.0080    -0.8020 c3         1 0LM      -0.088600
      6 C21          5.8700     2.5010    -0.2650 c3         1 0LM      -0.088600
      7 C22          5.4870     0.8120    -1.9810 c3         1 0LM      -0.088600
      8 C01         -5.4900    -1.4370    -0.5270 ca         1 0LM      -0.067000
      9 C02         -6.0590    -0.3920     0.1830 ca         1 0LM      -0.052600
     10 C03         -5.2310     0.5990     0.6790 ca         1 0LM       0.172900
     11 C04         -3.8640     0.5830     0.4920 ca         1 0LM      -0.194000
     12 C05         -3.2980    -0.4720    -0.2230 ca         1 0LM       0.099600
     13 C06         -4.1240    -1.4780    -0.7290 ca         1 0LM      -0.190000
     14 N07         -1.9330    -0.5910    -0.4700 ns         1 0LM      -0.445100
     15 C08         -0.9270     0.2020    -0.0680 c          1 0LM       0.588100
     16 O09         -1.0230     1.2140     0.6000 o          1 0LM      -0.577100
     17 N11          1.4530     0.4230    -0.1410 ns         1 0LM      -0.536900
     18 O12          0.5100    -1.3290    -1.2420 o          1 0LM      -0.607100
     19 C14          3.6610     1.3970    -0.3370 c6         1 0LM      -0.118900
     20 N16          5.6790     0.1110     0.4120 n3         1 0LM      -0.739600
     21 C18          3.3890    -0.8810     0.6150 c6         1 0LM      -0.118900
     22 C19          5.3220    -2.0360     1.6290 c3         1 0LM      -0.088600
     23 C23          6.0230     0.6180     1.7310 c3         1 0LM       0.165100
     24 F25         -5.7700     1.6100     1.3610 f          1 0LM      -0.122900
     25 H1           2.8990    -0.3090    -1.4080 h1         1 0LM       0.080700
     26 H2           6.2180    -2.0760    -1.0050 hc         1 0LM       0.039617
     27 H3           4.7760    -3.0200    -0.6330 hc         1 0LM       0.039617
     28 H4           4.6600    -1.6530    -1.7030 hc         1 0LM       0.039617
     29 H5           5.6280     2.9400     0.7020 hc         1 0LM       0.039617
     30 H6           6.9550     2.4080    -0.3420 hc         1 0LM       0.039617
     31 H7           5.5470     3.2130    -1.0240 hc         1 0LM       0.039617
     32 H8           5.3810     1.7040    -2.6000 hc         1 0LM       0.039617
     33 H9           6.5150     0.4610    -2.0760 hc         1 0LM       0.039617
     34 H10          4.8370     0.0610    -2.4230 hc         1 0LM       0.039617
     35 H11         -6.1170    -2.2240    -0.9250 ha         1 0LM       0.152000
     36 H12         -3.2720     1.3850     0.9040 ha         1 0LM       0.185000
     37 H13         -3.6960    -2.3040    -1.2820 ha         1 0LM       0.143000
     38 H14         -1.6470    -1.3950    -1.0160 hn         1 0LM       0.353500
     39 H15          1.2430     1.2080     0.4590 hn         1 0LM       0.340500
     40 H16          3.3130     2.1060    -1.0940 hc         1 0LM       0.051200
     41 H17          3.4860     1.8690     0.6380 hc         1 0LM       0.051200
     42 H19          3.1990    -0.4830     1.6180 hc         1 0LM       0.051200
     43 H20          2.8380    -1.8230     0.5460 hc         1 0LM       0.051200
     44 H21          5.0670    -1.6140     2.6000 hc         1 0LM       0.039617
     45 H22          4.8050    -2.9930     1.5530 hc         1 0LM       0.039617
     46 H23          6.3940    -2.2420     1.6090 hc         1 0LM       0.039617
     47 H24          6.5460    -0.1410     2.3050 h1         1 0LM       0.029033
     48 H25          6.7230     1.4440     1.6480 h1         1 0LM       0.029033
     49 H26          5.1760     0.9660     2.3410 h1         1 0LM       0.029033
     50 CL          -7.7570    -0.3100     0.4550 cl         1 0LM      -0.075400
@<TRIPOS>BOND
     1     1    15 1   
     2     1    17 1   
     3     1    18 2   
     4     2    17 1   
     5     2    19 1   
     6     2    21 1   
     7     2    25 1   
     8     3     6 1   
     9     3     7 1   
    10     3    19 1   
    11     3    20 1   
    12     4     5 1   
    13     4    20 1   
    14     4    21 1   
    15     4    22 1   
    16     5    26 1   
    17     5    27 1   
    18     5    28 1   
    19     6    29 1   
    20     6    30 1   
    21     6    31 1   
    22     7    32 1   
    23     7    33 1   
    24     7    34 1   
    25     8     9 ar  
    26     8    13 ar  
    27     8    35 1   
    28     9    10 ar  
    29     9    50 1   
    30    10    11 ar  
    31    10    24 1   
    32    11    12 ar  
    33    11    36 1   
    34    12    13 ar  
    35    12    14 1   
    36    13    37 1   
    37    14    15 1   
    38    14    38 1   
    39    15    16 2   
    40    17    39 1   
    41    19    40 1   
    42    19    41 1   
    43    20    23 1   
    44    21    42 1   
    45    21    43 1   
    46    22    44 1   
    47    22    45 1   
    48    22    46 1   
    49    23    47 1   
    50    23    48 1   
    51    23    49 1   
@<TRIPOS>SUBSTRUCTURE
     1 0LM         1 TEMP              0 ****  ****    0 ROOT
