@<TRIPOS>MOLECULE
0LM
   50    51     1     0     0
SMALL
No Charge or Current Charge


@<TRIPOS>ATOM
      1 C10          0.4280    -0.3460    -0.5160 c          1 0LM       0.522100
      2 C13          2.9270     0.0900    -0.4220 c6         1 0LM       0.117700
      3 C15          5.2750     1.1770    -0.5530 c6         1 0LM       0.222200
      4 C17          5.0050    -1.1820     0.4560 c6         1 0LM       0.222200
      5 C20          5.2960    -2.0400    -0.8280 c3         1 0LM      -0.088600
      6 C21          5.9980     2.5630    -0.3880 c3         1 0LM      -0.088600
      7 C22          5.6110     0.7840    -2.0370 c3         1 0LM      -0.088600
      8 C01         -5.6820    -1.3910    -0.6000 ca         1 0LM      -0.049000
      9 C02         -6.2630    -0.3750     0.1760 ca         1 0LM       0.039000
     10 C03         -5.4400     0.5980     0.7720 ca         1 0LM       0.208000
     11 C04         -4.0470     0.5590     0.5960 ca         1 0LM      -0.176000
     12 C05         -3.4560    -0.4600    -0.1830 ca         1 0LM       0.007000
     13 C06         -4.2870    -1.4300    -0.7760 ca         1 0LM      -0.172000
     14 N07         -2.0550    -0.5670    -0.4070 ns         1 0LM      -0.119000
     15 C08         -0.9770     0.2020     0.0190 c          1 0LM       0.521100
     16 O09         -1.0650     1.2040     0.7320 o          1 0LM      -0.577100
     17 N11          1.5300     0.3930    -0.1160 ns         1 0LM      -0.469900
     18 O12          0.5360    -1.3430    -1.2280 o          1 0LM      -0.607100
     19 C14          3.7470     1.4020    -0.3720 c6         1 0LM      -0.118900
     20 N16          5.7480     0.1560     0.4760 n3         1 0LM      -0.739600
     21 C18          3.4760    -0.9250     0.6100 c6         1 0LM      -0.118900
     22 C19          5.4560    -2.1390     1.6230 c3         1 0LM      -0.088600
     23 C23          5.8700     0.7290     1.8600 c3         1 0LM       0.165100
     24 F25         -5.9840     1.5830     1.5230 f          1 0LM      -0.158000
     25 H1           2.9740    -0.3390    -1.4330 h1         1 0LM       0.080700
     26 H2           6.3420    -1.9410    -1.1410 hc         1 0LM       0.039617
     27 H3           5.1160    -3.1090    -0.6650 hc         1 0LM       0.039617
     28 H4           4.6540    -1.7910    -1.6740 hc         1 0LM       0.039617
     29 H5           5.7200     3.0740     0.5410 hc         1 0LM       0.039617
     30 H6           7.0890     2.4490    -0.3990 hc         1 0LM       0.039617
     31 H7           5.7330     3.2640    -1.1890 hc         1 0LM       0.039617
     32 H8           5.6200     1.6550    -2.7040 hc         1 0LM       0.039617
     33 H9           6.6000     0.3190    -2.1110 hc         1 0LM       0.039617
     34 H10          4.8770     0.1160    -2.4900 hc         1 0LM       0.039617
     35 H11         -6.3130    -2.1460    -1.0640 ha         1 0LM       0.134000
     36 H12         -3.4520     1.3290     1.0740 ha         1 0LM       0.167000
     37 H13         -3.8530    -2.2240    -1.3810 ha         1 0LM       0.125000
     38 H14         -1.7910    -1.3530    -0.9880 hn         1 0LM       0.187000
     39 H15          1.3470     1.1890     0.4840 hn         1 0LM       0.340500
     40 H16          3.3830     2.0900    -1.1450 hc         1 0LM       0.051200
     41 H17          3.5660     1.9040     0.5880 hc         1 0LM       0.051200
     42 H19          3.2650    -0.5560     1.6230 hc         1 0LM       0.051200
     43 H20          2.9260    -1.8730     0.5190 hc         1 0LM       0.051200
     44 H21          5.1630    -1.7680     2.6120 hc         1 0LM       0.039617
     45 H22          4.9910    -3.1310     1.5450 hc         1 0LM       0.039617
     46 H23          6.5430    -2.2890     1.6250 hc         1 0LM       0.039617
     47 H24          6.3460     0.0270     2.5530 h1         1 0LM       0.029033
     48 H25          6.5220     1.6100     1.8850 h1         1 0LM       0.029033
     49 H26          4.8920     1.0110     2.2710 h1         1 0LM       0.029033
     50 Cl          -8.0130    -0.3360     0.3900 cl         1 0LM      -0.167000
@<TRIPOS>BOND
     1     1    15 1   
     2     1    17 1   
     3     1    18 2   
     4     2    17 1   
     5     2    19 1   
     6     2    21 1   
     7     2    25 1   
     8     3     6 1   
     9     3     7 1   
    10     3    19 1   
    11     3    20 1   
    12     4     5 1   
    13     4    20 1   
    14     4    21 1   
    15     4    22 1   
    16     5    26 1   
    17     5    27 1   
    18     5    28 1   
    19     6    29 1   
    20     6    30 1   
    21     6    31 1   
    22     7    32 1   
    23     7    33 1   
    24     7    34 1   
    25     8     9 ar  
    26     8    13 ar  
    27     8    35 1   
    28     9    10 ar  
    29     9    50 1   
    30    10    11 ar  
    31    10    24 1   
    32    11    12 ar  
    33    11    36 1   
    34    12    13 ar  
    35    12    14 1   
    36    13    37 1   
    37    14    15 1   
    38    14    38 1   
    39    15    16 2   
    40    17    39 1   
    41    19    40 1   
    42    19    41 1   
    43    20    23 1   
    44    21    42 1   
    45    21    43 1   
    46    22    44 1   
    47    22    45 1   
    48    22    46 1   
    49    23    47 1   
    50    23    48 1   
    51    23    49 1   
@<TRIPOS>SUBSTRUCTURE
     1 0LM         1 TEMP              0 ****  ****    0 ROOT
