@<TRIPOS>MOLECULE
0LN
   80    85     1     0     0
SMALL
abcg2


@<TRIPOS>ATOM
      1 O36         -0.9750    -3.9480     0.6740 o          1 0LN      -0.603100
      2 C34         -0.5820    -3.1210    -0.1420 c          1 0LN       0.610300
      3 N35         -1.2120    -2.8540    -1.3010 n          1 0LN      -0.399800
      4 C38         -0.8630    -1.7670    -2.1920 c3         1 0LN       0.083300
      5 C37         -2.3750    -3.6410    -1.6870 c3         1 0LN       0.092000
      6 C39         -3.6830    -2.8580    -1.7310 c3         1 0LN      -0.093400
      7 C40         -4.0240    -2.1220    -0.4380 c3         1 0LN      -0.103400
      8 C41         -5.4600    -1.6100    -0.5070 c3         1 0LN       0.206800
      9 N31         -5.9160    -0.8100     0.6330 n3         1 0LN      -0.779500
     10 C42         -5.9310    -1.4680     1.9340 c3         1 0LN       0.192100
     11 S30         -5.8250     0.8120     0.5540 s6         1 0LN       1.319900
     12 O32         -6.1500     1.2360    -0.7870 o          1 0LN      -0.532000
     13 O33         -6.5430     1.3680     1.6790 o          1 0LN      -0.532000
     14 N29         -4.1790     1.1070     0.7720 ns         1 0LN      -0.613300
     15 C27         -3.4970     2.1990     0.2660 c          1 0LN       0.651700
     16 O28         -4.0750     3.1280    -0.2540 o          1 0LN      -0.532100
     17 C1          -2.0200     2.1160     0.3540 ca         1 0LN      -0.144600
     18 C19          0.6510    -2.3560     0.2170 ce         1 0LN      -0.192400
     19 C20          0.5280    -1.4180     1.3860 c3         1 0LN       0.120800
     20 N9           0.8740    -0.0880     0.9580 na         1 0LN      -0.076700
     21 C5           0.0170     0.9310     0.6800 ca         1 0LN      -0.061200
     22 C6          -1.3660     0.9550     0.7430 ca         1 0LN      -0.088000
     23 C18          1.8410    -2.5710    -0.3470 cf         1 0LN      -0.102200
     24 C17          3.1050    -1.9970     0.1370 ca         1 0LN      -0.018800
     25 C24          4.2280    -2.8140     0.0620 ca         1 0LN      -0.137000
     26 C23          5.4680    -2.4040     0.5440 ca         1 0LN       0.153100
     27 O25          6.4740    -3.2830     0.4230 os         1 0LN      -0.337100
     28 C26          7.7660    -2.8980     0.8560 c3         1 0LN       0.147900
     29 C22          5.5870    -1.1410     1.1200 ca         1 0LN      -0.192000
     30 C21          4.4790    -0.3110     1.1680 ca         1 0LN      -0.051000
     31 C16          3.2360    -0.6930     0.6690 ca         1 0LN      -0.065800
     32 C8           2.1480     0.2840     0.6110 cc         1 0LN       0.012700
     33 C7           2.1460     1.5910     0.1600 cd         1 0LN      -0.118400
     34 C4           0.7840     2.0190     0.2060 ca         1 0LN      -0.062800
     35 C3           0.1020     3.1960    -0.1420 ca         1 0LN      -0.073000
     36 C2          -1.2720     3.2340    -0.0690 ca         1 0LN      -0.091000
     37 C10          3.3150     2.3870    -0.3340 c6         1 0LN       0.010500
     38 C15          3.1390     2.8630    -1.7820 c6         1 0LN      -0.068900
     39 C14          4.3490     3.6640    -2.2530 c6         1 0LN      -0.074900
     40 C13          4.6300     4.8420    -1.3260 c6         1 0LN      -0.075400
     41 C12          4.8260     4.3720     0.1120 c6         1 0LN      -0.074900
     42 C11          3.6260     3.5660     0.5980 c6         1 0LN      -0.068900
     43 H1          -1.6230    -0.9830    -2.1740 h1         1 0LN       0.047700
     44 H2           0.0840    -1.3160    -1.9150 h1         1 0LN       0.047700
     45 H3          -0.7770    -2.1360    -3.2150 h1         1 0LN       0.047700
     46 H4          -2.1810    -4.0650    -2.6770 h1         1 0LN       0.063200
     47 H5          -2.4670    -4.4700    -0.9900 h1         1 0LN       0.063200
     48 H6          -3.6810    -2.1510    -2.5640 hc         1 0LN       0.049200
     49 H7          -4.4690    -3.5850    -1.9580 hc         1 0LN       0.049200
     50 H8          -3.8950    -2.7930     0.4150 hc         1 0LN       0.051200
     51 H9          -3.3300    -1.2890    -0.3050 hc         1 0LN       0.051200
     52 H10         -5.6070    -1.0340    -1.4190 h1         1 0LN       0.069700
     53 H11         -6.1430    -2.4600    -0.5690 h1         1 0LN       0.069700
     54 H12         -4.9330    -1.6050     2.3550 h1         1 0LN       0.051700
     55 H13         -6.5420    -0.9160     2.6410 h1         1 0LN       0.051700
     56 H14         -6.3800    -2.4510     1.8000 h1         1 0LN       0.051700
     57 H15         -3.7520     0.5670     1.5140 hn         1 0LN       0.322500
     58 H16         -0.4770    -1.4080     1.8040 h1         1 0LN       0.077700
     59 H17          1.1960    -1.7180     2.1970 h1         1 0LN       0.077700
     60 H18         -1.8950     0.0650     1.0580 ha         1 0LN       0.109000
     61 H19          1.9210    -3.2710    -1.1730 ha         1 0LN       0.191000
     62 H20          4.1360    -3.8040    -0.3720 ha         1 0LN       0.132000
     63 H21          8.1250    -2.0130     0.3250 h1         1 0LN       0.044367
     64 H22          7.7960    -2.7040     1.9310 h1         1 0LN       0.044367
     65 H23          8.4260    -3.7320     0.6320 h1         1 0LN       0.044367
     66 H24          6.5230    -0.7850     1.5280 ha         1 0LN       0.124000
     67 H25          4.5890     0.6650     1.6230 ha         1 0LN       0.125000
     68 H26          0.6330     4.0710    -0.4900 ha         1 0LN       0.123000
     69 H27         -1.7920     4.1350    -0.3630 ha         1 0LN       0.137000
     70 H28          4.1950     1.7350    -0.3320 hc         1 0LN       0.048700
     71 H29          2.9810     1.9990    -2.4330 hc         1 0LN       0.042200
     72 H30          2.2450     3.4870    -1.8700 hc         1 0LN       0.042200
     73 H31          5.2280     3.0110    -2.2870 hc         1 0LN       0.037700
     74 H32          4.1860     4.0160    -3.2750 hc         1 0LN       0.037700
     75 H33          5.5100     5.3920    -1.6680 hc         1 0LN       0.038700
     76 H34          3.7880     5.5420    -1.3670 hc         1 0LN       0.038700
     77 H35          5.7270     3.7510     0.1690 hc         1 0LN       0.037700
     78 H36          4.9940     5.2240     0.7740 hc         1 0LN       0.037700
     79 H37          2.7520     4.2250     0.6620 hc         1 0LN       0.042200
     80 H38          3.8030     3.1940     1.6110 hc         1 0LN       0.042200
@<TRIPOS>BOND
     1     1     2 2   
     2     2     3 1   
     3     2    18 1   
     4     3     4 1   
     5     3     5 1   
     6     4    43 1   
     7     4    44 1   
     8     4    45 1   
     9     5     6 1   
    10     5    46 1   
    11     5    47 1   
    12     6     7 1   
    13     6    48 1   
    14     6    49 1   
    15     7     8 1   
    16     7    50 1   
    17     7    51 1   
    18     8     9 1   
    19     8    52 1   
    20     8    53 1   
    21     9    10 1   
    22     9    11 1   
    23    10    54 1   
    24    10    55 1   
    25    10    56 1   
    26    11    12 2   
    27    11    13 2   
    28    11    14 1   
    29    14    15 1   
    30    14    57 1   
    31    15    16 2   
    32    15    17 1   
    33    17    22 ar  
    34    17    36 ar  
    35    18    19 1   
    36    18    23 2   
    37    19    20 1   
    38    19    58 1   
    39    19    59 1   
    40    20    21 1   
    41    20    32 1   
    42    21    22 ar  
    43    21    34 ar  
    44    22    60 1   
    45    23    24 1   
    46    23    61 1   
    47    24    25 ar  
    48    24    31 ar  
    49    25    26 ar  
    50    25    62 1   
    51    26    27 1   
    52    26    29 ar  
    53    27    28 1   
    54    28    63 1   
    55    28    64 1   
    56    28    65 1   
    57    29    30 ar  
    58    29    66 1   
    59    30    31 ar  
    60    30    67 1   
    61    31    32 1   
    62    32    33 2   
    63    33    34 1   
    64    33    37 1   
    65    34    35 ar  
    66    35    36 ar  
    67    35    68 1   
    68    36    69 1   
    69    37    38 1   
    70    37    42 1   
    71    37    70 1   
    72    38    39 1   
    73    38    71 1   
    74    38    72 1   
    75    39    40 1   
    76    39    73 1   
    77    39    74 1   
    78    40    41 1   
    79    40    75 1   
    80    40    76 1   
    81    41    42 1   
    82    41    77 1   
    83    41    78 1   
    84    42    79 1   
    85    42    80 1   
@<TRIPOS>SUBSTRUCTURE
     1 0LN         1 TEMP              0 ****  ****    0 ROOT
