@<TRIPOS>MOLECULE
0LN
   80    85     1     0     0
SMALL
No Charge or Current Charge


@<TRIPOS>ATOM
      1 O36         -1.4160    -3.1510     1.1460 o          1 0LN      -0.603100
      2 C34         -0.5850    -2.7840     0.3250 c          1 0LN       0.610300
      3 N35         -0.8930    -2.8160    -1.0610 n          1 0LN      -0.399800
      4 C38         -0.0590    -2.1230    -2.0740 c3         1 0LN       0.083300
      5 C37         -2.1840    -3.3750    -1.5410 c3         1 0LN       0.092000
      6 C39         -3.2720    -2.3080    -1.8310 c3         1 0LN      -0.093400
      7 C40         -4.0270    -1.7830    -0.5840 c3         1 0LN      -0.103400
      8 C41         -4.9830    -0.6070    -0.9220 c3         1 0LN       0.206800
      9 N31         -6.0790    -0.3510     0.0480 n3         1 0LN      -0.779500
     10 C42         -7.1580    -1.3610     0.0340 c3         1 0LN       0.192100
     11 S30         -5.7350     0.3130     1.6030 s6         1 0LN       1.319900
     12 O32         -6.5790     1.4970     1.7730 o          1 0LN      -0.532000
     13 O33         -5.7570    -0.7980     2.5570 o          1 0LN      -0.532000
     14 N29         -4.1470     0.7750     1.4680 ns         1 0LN      -0.613300
     15 C27         -3.6160     1.9230     0.9730 c          1 0LN       0.651700
     16 O28         -4.2980     2.8510     0.5690 o          1 0LN      -0.532100
     17 C1          -2.1010     1.9540     0.9200 ca         1 0LN      -0.144600
     18 C19          0.7380    -2.2280     0.7900 ce         1 0LN      -0.192400
     19 C20          0.6670    -1.3760     2.0360 c3         1 0LN       0.120800
     20 N9           1.0200    -0.0090     1.6660 na         1 0LN      -0.076700
     21 C5           0.0730     0.9360     1.3050 ca         1 0LN      -0.061200
     22 C6          -1.3190     0.9050     1.4740 ca         1 0LN      -0.088000
     23 C18          1.9500    -2.4290     0.1790 cf         1 0LN      -0.102200
     24 C17          3.2720    -1.8550     0.5380 ca         1 0LN      -0.018800
     25 C24          4.4150    -2.6570     0.3540 ca         1 0LN      -0.137000
     26 C23          5.6920    -2.1920     0.6990 ca         1 0LN       0.153100
     27 O25          6.7630    -3.0400     0.5010 os         1 0LN      -0.337100
     28 C26          8.1130    -2.6600     0.8230 c3         1 0LN       0.147900
     29 C22          5.8380    -0.9000     1.2420 ca         1 0LN      -0.192000
     30 C21          4.7100    -0.0810     1.4100 ca         1 0LN      -0.051000
     31 C16          3.4280    -0.5320     1.0380 ca         1 0LN      -0.065800
     32 C8           2.2750     0.3640     1.1810 cc         1 0LN       0.012700
     33 C7           2.0970     1.5730     0.4980 cd         1 0LN      -0.118400
     34 C4           0.6920     1.9430     0.6150 ca         1 0LN      -0.062800
     35 C3          -0.0350     3.0250     0.0980 ca         1 0LN      -0.073000
     36 C2          -1.4380     3.0250     0.2590 ca         1 0LN      -0.091000
     37 C10          3.1610     2.2260    -0.3800 c6         1 0LN       0.010500
     38 C15          2.7280     2.2570    -1.8730 c6         1 0LN      -0.068900
     39 C14          3.8100     2.9230    -2.7580 c6         1 0LN      -0.074900
     40 C13          4.1550     4.3440    -2.2460 c6         1 0LN      -0.075400
     41 C12          4.5960     4.3130    -0.7620 c6         1 0LN      -0.074900
     42 C11          3.5180     3.6480     0.1310 c6         1 0LN      -0.068900
     43 H1           0.3780    -1.2080    -1.6530 h1         1 0LN       0.047700
     44 H2           0.7380    -2.7910    -2.4250 h1         1 0LN       0.047700
     45 H3          -0.6660    -1.8400    -2.9430 h1         1 0LN       0.047700
     46 H4          -1.9810    -3.9160    -2.4740 h1         1 0LN       0.063200
     47 H5          -2.5720    -4.1170    -0.8300 h1         1 0LN       0.063200
     48 H6          -2.8290    -1.4640    -2.3740 hc         1 0LN       0.049200
     49 H7          -4.0100    -2.7540    -2.5100 hc         1 0LN       0.049200
     50 H8          -4.5930    -2.6130    -0.1440 hc         1 0LN       0.051200
     51 H9          -3.3030    -1.4550     0.1690 hc         1 0LN       0.051200
     52 H10         -4.3860     0.2990    -1.0880 h1         1 0LN       0.069700
     53 H11         -5.4400    -0.8290    -1.8960 h1         1 0LN       0.069700
     54 H12         -6.8400    -2.2890     0.5280 h1         1 0LN       0.051700
     55 H13         -8.0510    -0.9870     0.5530 h1         1 0LN       0.051700
     56 H14         -7.4520    -1.6070    -0.9950 h1         1 0LN       0.051700
     57 H15         -3.5380     0.0450     1.7850 hn         1 0LN       0.322500
     58 H16         -0.3200    -1.4070     2.5100 h1         1 0LN       0.077700
     59 H17          1.3960    -1.7400     2.7710 h1         1 0LN       0.077700
     60 H18         -1.7770     0.0720     1.9970 ha         1 0LN       0.109000
     61 H19          1.9910    -3.1160    -0.6650 ha         1 0LN       0.191000
     62 H20          4.3130    -3.6620    -0.0450 ha         1 0LN       0.132000
     63 H21          8.4180    -1.7770     0.2470 h1         1 0LN       0.044367
     64 H22          8.2100    -2.4330     1.8930 h1         1 0LN       0.044367
     65 H23          8.8050    -3.4770     0.5850 h1         1 0LN       0.044367
     66 H24          6.8110    -0.5120     1.5310 ha         1 0LN       0.124000
     67 H25          4.8310     0.9180     1.8240 ha         1 0LN       0.125000
     68 H26          0.4510     3.8290    -0.4460 ha         1 0LN       0.123000
     69 H27         -2.0140     3.8430    -0.1690 ha         1 0LN       0.137000
     70 H28          4.0850     1.6400    -0.3530 hc         1 0LN       0.048700
     71 H29          2.5430     1.2320    -2.2240 hc         1 0LN       0.042200
     72 H30          1.7820     2.7990    -1.9940 hc         1 0LN       0.042200
     73 H31          4.7170     2.3020    -2.7660 hc         1 0LN       0.037700
     74 H32          3.4600     2.9760    -3.7980 hc         1 0LN       0.037700
     75 H33          4.9530     4.7780    -2.8630 hc         1 0LN       0.038700
     76 H34          3.2810     5.0000    -2.3590 hc         1 0LN       0.038700
     77 H35          5.5440     3.7640    -0.6690 hc         1 0LN       0.037700
     78 H36          4.7920     5.3350    -0.4100 hc         1 0LN       0.037700
     79 H37          2.6240     4.2830     0.1570 hc         1 0LN       0.042200
     80 H38          3.8840     3.5880     1.1660 hc         1 0LN       0.042200
@<TRIPOS>BOND
     1     1     2 2   
     2     2     3 1   
     3     2    18 1   
     4     3     4 1   
     5     3     5 1   
     6     4    43 1   
     7     4    44 1   
     8     4    45 1   
     9     5     6 1   
    10     5    46 1   
    11     5    47 1   
    12     6     7 1   
    13     6    48 1   
    14     6    49 1   
    15     7     8 1   
    16     7    50 1   
    17     7    51 1   
    18     8     9 1   
    19     8    52 1   
    20     8    53 1   
    21     9    10 1   
    22     9    11 1   
    23    10    54 1   
    24    10    55 1   
    25    10    56 1   
    26    11    12 2   
    27    11    13 2   
    28    11    14 1   
    29    14    15 1   
    30    14    57 1   
    31    15    16 2   
    32    15    17 1   
    33    17    22 ar  
    34    17    36 ar  
    35    18    19 1   
    36    18    23 2   
    37    19    20 1   
    38    19    58 1   
    39    19    59 1   
    40    20    21 1   
    41    20    32 1   
    42    21    22 ar  
    43    21    34 ar  
    44    22    60 1   
    45    23    24 1   
    46    23    61 1   
    47    24    25 ar  
    48    24    31 ar  
    49    25    26 ar  
    50    25    62 1   
    51    26    27 1   
    52    26    29 ar  
    53    27    28 1   
    54    28    63 1   
    55    28    64 1   
    56    28    65 1   
    57    29    30 ar  
    58    29    66 1   
    59    30    31 ar  
    60    30    67 1   
    61    31    32 1   
    62    32    33 2   
    63    33    34 1   
    64    33    37 1   
    65    34    35 ar  
    66    35    36 ar  
    67    35    68 1   
    68    36    69 1   
    69    37    38 1   
    70    37    42 1   
    71    37    70 1   
    72    38    39 1   
    73    38    71 1   
    74    38    72 1   
    75    39    40 1   
    76    39    73 1   
    77    39    74 1   
    78    40    41 1   
    79    40    75 1   
    80    40    76 1   
    81    41    42 1   
    82    41    77 1   
    83    41    78 1   
    84    42    79 1   
    85    42    80 1   
@<TRIPOS>SUBSTRUCTURE
     1 0LN         1 TEMP              0 ****  ****    0 ROOT
