@<TRIPOS>MOLECULE
0LO
   23    24     1     0     0
SMALL
No Charge or Current Charge


@<TRIPOS>ATOM
      1 CAF          2.7510     0.9840    -0.3220 ca         1 0LO      -0.107000
      2 CAD          4.0940     0.5700    -0.3590 ca         1 0LO      -0.117500
      3 CAC          4.4330    -0.7460    -0.0070 ca         1 0LO      -0.131000
      4 CAE          3.4300    -1.6460     0.3810 ca         1 0LO      -0.117500
      5 CAG          2.0870    -1.2320     0.4170 ca         1 0LO      -0.107000
      6 CAN          1.7180     0.0920     0.0650 cp         1 0LO       0.008000
      7 CAO          0.2870     0.5350     0.1040 cp         1 0LO      -0.140000
      8 CAJ         -0.7760    -0.3550    -0.1850 ca         1 0LO      -0.043000
      9 CAI         -0.0640     1.8690     0.4310 ca         1 0LO       0.318900
     10 NAK         -1.3350     2.3250     0.4840 nb         1 0LO      -0.710000
     11 CAH         -2.3330     1.4530     0.2040 ca         1 0LO       0.352900
     12 CAM         -2.1090     0.1090    -0.1350 ca         1 0LO      -0.183600
     13 CAL         -3.2740    -0.7910    -0.4360 c          1 0LO       0.719600
     14 OAB         -4.4020    -0.3240    -0.3830 o          1 0LO      -0.715000
     15 OAA         -3.0500    -1.9580    -0.7210 o          1 0LO      -0.715000
     16 H1           2.5100     2.0040    -0.6110 ha         1 0LO       0.118500
     17 H2           4.8700     1.2690    -0.6620 ha         1 0LO       0.100000
     18 H3           5.4730    -1.0660    -0.0350 ha         1 0LO       0.097000
     19 H4           3.6910    -2.6650     0.6580 ha         1 0LO       0.100000
     20 H5           1.3280    -1.9430     0.7350 ha         1 0LO       0.118500
     21 H6          -0.5670    -1.3870    -0.4580 ha         1 0LO       0.134000
     22 H7           0.7050     2.6010     0.6760 h4         1 0LO      -0.009900
     23 H8          -3.3420     1.8640     0.2580 h4         1 0LO       0.033100
@<TRIPOS>BOND
     1     1     2 ar  
     2     1     6 ar  
     3     1    16 1   
     4     2     3 ar  
     5     2    17 1   
     6     3     4 ar  
     7     3    18 1   
     8     4     5 ar  
     9     4    19 1   
    10     5     6 ar  
    11     5    20 1   
    12     6     7 1   
    13     7     8 ar  
    14     7     9 ar  
    15     8    12 ar  
    16     8    21 1   
    17     9    10 ar  
    18     9    22 1   
    19    10    11 ar  
    20    11    12 ar  
    21    11    23 1   
    22    12    13 1   
    23    13    14 1   
    24    13    15 1   
@<TRIPOS>SUBSTRUCTURE
     1 0LO         1 TEMP              0 ****  ****    0 ROOT
