@<TRIPOS>MOLECULE
0LO
   23    24     1     0     0
SMALL
bcc


@<TRIPOS>ATOM
      1 CAF          2.7040     0.9570    -0.3820 ca         1 0LO      -0.125000
      2 CAD          4.0280     0.5460    -0.4250 ca         1 0LO      -0.135500
      3 CAC          4.3770    -0.7340    -0.0170 ca         1 0LO      -0.149000
      4 CAE          3.3910    -1.6020     0.4340 ca         1 0LO      -0.135500
      5 CAG          2.0670    -1.1920     0.4790 ca         1 0LO      -0.125000
      6 CAN          1.7040     0.0940     0.0740 cp         1 0LO       0.008000
      7 CAO          0.2960     0.5290     0.1240 cp         1 0LO      -0.205300
      8 CAJ         -0.7520    -0.3280    -0.1990 ca         1 0LO      -0.061000
      9 CAI         -0.0440     1.8270     0.5050 ca         1 0LO       0.384200
     10 NAK         -1.2900     2.2750     0.5660 nb         1 0LO      -0.710000
     11 CAH         -2.2710     1.4390     0.2460 ca         1 0LO       0.418200
     12 CAM         -2.0640     0.1190    -0.1430 ca         1 0LO      -0.248900
     13 CAL         -3.2290    -0.7930    -0.5070 c          1 0LO       0.930200
     14 OAB         -4.3660    -0.2930    -0.4350 o          1 0LO      -0.820300
     15 OAA         -2.9340    -1.9540    -0.8450 o          1 0LO      -0.820300
     16 H1           2.4430     1.9500    -0.7270 ha         1 0LO       0.136500
     17 H2           4.7880     1.2270    -0.7870 ha         1 0LO       0.118000
     18 H3           5.4100    -1.0540    -0.0500 ha         1 0LO       0.115000
     19 H4           3.6540    -2.6000     0.7600 ha         1 0LO       0.118000
     20 H5           1.3100    -1.8730     0.8500 ha         1 0LO       0.136500
     21 H6          -0.5510    -1.3440    -0.5140 ha         1 0LO       0.152000
     22 H7           0.7330     2.5300     0.7890 h4         1 0LO      -0.009900
     23 H8          -3.2790     1.8320     0.3030 h4         1 0LO       0.033100
@<TRIPOS>BOND
     1     1     2 ar  
     2     1     6 ar  
     3     1    16 1   
     4     2     3 ar  
     5     2    17 1   
     6     3     4 ar  
     7     3    18 1   
     8     4     5 ar  
     9     4    19 1   
    10     5     6 ar  
    11     5    20 1   
    12     6     7 1   
    13     7     8 ar  
    14     7     9 ar  
    15     8    12 ar  
    16     8    21 1   
    17     9    10 ar  
    18     9    22 1   
    19    10    11 ar  
    20    11    12 ar  
    21    11    23 1   
    22    12    13 1   
    23    13    14 1   
    24    13    15 1   
@<TRIPOS>SUBSTRUCTURE
     1 0LO         1 TEMP              0 ****  ****    0 ROOT
