@<TRIPOS>MOLECULE
0LQ
   66    71     1     0     0
SMALL
abcg2


@<TRIPOS>ATOM
      1 C1          -0.8390     1.2870    -0.3600 c5         1 0LQ       0.077200
      2 N1          -1.4390     0.5110     0.7110 n          1 0LQ      -0.401300
      3 C2          -0.6350    -0.1900     1.5470 c          1 0LQ       0.479500
      4 O1          -1.0450    -0.7830     2.5220 o          1 0LQ      -0.484500
      5 C3           0.8560    -0.3890     1.1720 c          1 0LQ       0.479500
      6 O2           1.4370    -1.3220     1.6800 o          1 0LQ      -0.484500
      7 N2           1.3790     0.4640     0.2720 n          1 0LQ      -0.401300
      8 C4           2.7670     0.3810    -0.1700 c3         1 0LQ       0.217800
      9 C5           3.7480     1.0760     0.7500 ca         1 0LQ      -0.097050
     10 C6           4.9220     1.5730     0.1870 ca         1 0LQ      -0.092875
     11 C7           5.8770     2.2030     0.9700 ca         1 0LQ      -0.111125
     12 C8           5.6660     2.3540     2.3350 ca         1 0LQ      -0.103000
     13 C9           4.4940     1.8760     2.9010 ca         1 0LQ      -0.111125
     14 C10          3.5400     1.2390     2.1150 ca         1 0LQ      -0.092875
     15 C11          3.1450    -1.0440    -0.5390 ca         1 0LQ      -0.097050
     16 C12          4.1810    -1.7310     0.0790 ca         1 0LQ      -0.092875
     17 C13          4.5070    -3.0210    -0.3210 ca         1 0LQ      -0.111125
     18 C14          3.7980    -3.6390    -1.3410 ca         1 0LQ      -0.103000
     19 C15          2.7620    -2.9550    -1.9660 ca         1 0LQ      -0.111125
     20 C16          2.4440    -1.6650    -1.5690 ca         1 0LQ      -0.092875
     21 C17          0.5840     1.6500     0.0260 c5         1 0LQ       0.077200
     22 C18          0.9860     2.5590    -1.1220 c5         1 0LQ       0.150800
     23 N3          -0.2230     3.3610    -1.3150 n7         1 0LQ      -0.867400
     24 C19         -1.3600     2.6960    -0.6720 c5         1 0LQ       0.150800
     25 C20         -2.8740     0.2030     0.8310 c3         1 0LQ       0.217800
     26 C21         -3.7470     1.0630    -0.0550 ca         1 0LQ      -0.097050
     27 C22         -4.3650     2.1840     0.4860 ca         1 0LQ      -0.092875
     28 C23         -5.1590     3.0060    -0.3020 ca         1 0LQ      -0.111125
     29 C24         -5.3460     2.7080    -1.6450 ca         1 0LQ      -0.103000
     30 C25         -4.7460     1.5780    -2.1890 ca         1 0LQ      -0.111125
     31 C26         -3.9580     0.7570    -1.3970 ca         1 0LQ      -0.092875
     32 C27         -3.1540    -1.2680     0.5800 ca         1 0LQ      -0.097050
     33 C28         -4.2400    -1.8550     1.2210 ca         1 0LQ      -0.092875
     34 C29         -4.5770    -3.1780     0.9790 ca         1 0LQ      -0.111125
     35 C30         -3.8270    -3.9360     0.0880 ca         1 0LQ      -0.103000
     36 C31         -2.7410    -3.3570    -0.5550 ca         1 0LQ      -0.111125
     37 C32         -2.4070    -2.0320    -0.3090 ca         1 0LQ      -0.092875
     38 H1          -0.8190     0.7050    -1.2920 h1         1 0LQ       0.064200
     39 H2           2.7960     0.9340    -1.1120 h1         1 0LQ       0.070200
     40 H3           5.0910     1.4660    -0.8790 ha         1 0LQ       0.115375
     41 H4           6.7820     2.5830     0.5140 ha         1 0LQ       0.113875
     42 H5           6.4070     2.8490     2.9500 ha         1 0LQ       0.113750
     43 H6           4.3150     1.9950     3.9620 ha         1 0LQ       0.113875
     44 H7           2.6390     0.8750     2.5880 ha         1 0LQ       0.115375
     45 H8           4.7390    -1.2670     0.8820 ha         1 0LQ       0.115375
     46 H9           5.3160    -3.5460     0.1720 ha         1 0LQ       0.113875
     47 H10          4.0510    -4.6450    -1.6490 ha         1 0LQ       0.113750
     48 H11          2.2050    -3.4250    -2.7670 ha         1 0LQ       0.113875
     49 H12          1.6390    -1.1370    -2.0690 ha         1 0LQ       0.115375
     50 H13          0.5490     2.2610     0.9380 h1         1 0LQ       0.064200
     51 H14          1.8500     3.1790    -0.8720 h1         1 0LQ       0.060700
     52 H15          1.2430     1.9730    -2.0110 h1         1 0LQ       0.060700
     53 H16         -0.4010     3.4910    -2.2990 hn         1 0LQ       0.418000
     54 H18         -2.2230     2.7080    -1.3310 h1         1 0LQ       0.060700
     55 H19         -1.6420     3.2000     0.2580 h1         1 0LQ       0.060700
     56 H20         -3.1590     0.4190     1.8630 h1         1 0LQ       0.070200
     57 H21         -4.2160     2.4250     1.5330 ha         1 0LQ       0.115375
     58 H22         -5.6300     3.8770     0.1330 ha         1 0LQ       0.113875
     59 H23         -5.9630     3.3460    -2.2630 ha         1 0LQ       0.113750
     60 H24         -4.8950     1.3350    -3.2330 ha         1 0LQ       0.113875
     61 H25         -3.5020    -0.1220    -1.8350 ha         1 0LQ       0.115375
     62 H26         -4.8270    -1.2690     1.9190 ha         1 0LQ       0.115375
     63 H27         -5.4210    -3.6210     1.4910 ha         1 0LQ       0.113875
     64 H28         -4.0850    -4.9690    -0.1020 ha         1 0LQ       0.113750
     65 H29         -2.1500    -3.9380    -1.2500 ha         1 0LQ       0.113875
     66 H30         -1.5540    -1.6060    -0.8250 ha         1 0LQ       0.115375
@<TRIPOS>BOND
     1     1     2 1   
     2     1    21 1   
     3     1    24 1   
     4     1    38 1   
     5     2     3 1   
     6     2    25 1   
     7     3     4 2   
     8     3     5 1   
     9     5     6 2   
    10     5     7 1   
    11     7     8 1   
    12     7    21 1   
    13     8     9 1   
    14     8    15 1   
    15     8    39 1   
    16     9    10 ar  
    17     9    14 ar  
    18    10    11 ar  
    19    10    40 1   
    20    11    12 ar  
    21    11    41 1   
    22    12    13 ar  
    23    12    42 1   
    24    13    14 ar  
    25    13    43 1   
    26    14    44 1   
    27    15    16 ar  
    28    15    20 ar  
    29    16    17 ar  
    30    16    45 1   
    31    17    18 ar  
    32    17    46 1   
    33    18    19 ar  
    34    18    47 1   
    35    19    20 ar  
    36    19    48 1   
    37    20    49 1   
    38    21    22 1   
    39    21    50 1   
    40    22    23 1   
    41    22    51 1   
    42    22    52 1   
    43    23    24 1   
    44    23    53 1   
    45    24    54 1   
    46    24    55 1   
    47    25    26 1   
    48    25    32 1   
    49    25    56 1   
    50    26    27 ar  
    51    26    31 ar  
    52    27    28 ar  
    53    27    57 1   
    54    28    29 ar  
    55    28    58 1   
    56    29    30 ar  
    57    29    59 1   
    58    30    31 ar  
    59    30    60 1   
    60    31    61 1   
    61    32    33 ar  
    62    32    37 ar  
    63    33    34 ar  
    64    33    62 1   
    65    34    35 ar  
    66    34    63 1   
    67    35    36 ar  
    68    35    64 1   
    69    36    37 ar  
    70    36    65 1   
    71    37    66 1   
@<TRIPOS>SUBSTRUCTURE
     1 0LQ         1 TEMP              0 ****  ****    0 ROOT
