@<TRIPOS>MOLECULE
0LQ
   66    71     1     0     0
SMALL
No Charge or Current Charge


@<TRIPOS>ATOM
      1 C1          -0.7530     0.4410    -0.7800 c5         1 0LQ       0.077200
      2 N1          -1.4390     0.1220     0.5180 n          1 0LQ      -0.401300
      3 C2          -0.5900    -0.4480     1.5120 c          1 0LQ       0.479500
      4 O1          -1.0380    -0.9260     2.5520 o          1 0LQ      -0.484500
      5 C3           0.9970    -0.4350     1.2450 c          1 0LQ       0.479500
      6 O2           1.7460    -1.1010     1.9540 o          1 0LQ      -0.484500
      7 N2           1.4800     0.3720     0.1750 n          1 0LQ      -0.401300
      8 C4           2.9490     0.4390    -0.1010 c3         1 0LQ       0.217800
      9 C5           3.7700     1.3070     0.8720 ca         1 0LQ      -0.097050
     10 C6           5.1240     1.5680     0.5690 ca         1 0LQ      -0.092875
     11 C7           5.9110     2.3670     1.4170 ca         1 0LQ      -0.111125
     12 C8           5.3510     2.9240     2.5770 ca         1 0LQ      -0.103000
     13 C9           4.0020     2.6860     2.8830 ca         1 0LQ      -0.111125
     14 C10          3.2140     1.8870     2.0360 ca         1 0LQ      -0.092875
     15 C11          3.5680    -0.9390    -0.3850 ca         1 0LQ      -0.097050
     16 C12          4.4060    -1.5920     0.5480 ca         1 0LQ      -0.092875
     17 C13          4.9570    -2.8510     0.2530 ca         1 0LQ      -0.111125
     18 C14          4.6760    -3.4730    -0.9740 ca         1 0LQ      -0.103000
     19 C15          3.8410    -2.8360    -1.9050 ca         1 0LQ      -0.111125
     20 C16          3.2900    -1.5770    -1.6120 ca         1 0LQ      -0.092875
     21 C17          0.4730     1.3080    -0.4190 c5         1 0LQ       0.077200
     22 C18          0.8610     1.7840    -1.8560 c5         1 0LQ       0.150800
     23 N3          -0.4390     2.0430    -2.5520 n7         1 0LQ      -0.867400
     24 C19         -1.4990     1.4950    -1.6510 c5         1 0LQ       0.150800
     25 C20         -2.9210     0.0000     0.7180 c3         1 0LQ       0.217800
     26 C21         -3.7490     1.2320     0.3280 ca         1 0LQ      -0.097050
     27 C22         -3.5540     2.4300     1.0470 ca         1 0LQ      -0.092875
     28 C23         -4.2870     3.5860     0.7270 ca         1 0LQ      -0.111125
     29 C24         -5.2290     3.5550    -0.3120 ca         1 0LQ      -0.103000
     30 C25         -5.4400     2.3660    -1.0290 ca         1 0LQ      -0.111125
     31 C26         -4.7080     1.2090    -0.7110 ca         1 0LQ      -0.092875
     32 C27         -3.4960    -1.3350     0.2210 ca         1 0LQ      -0.097050
     33 C28         -4.2980    -2.1070     1.0890 ca         1 0LQ      -0.092875
     34 C29         -4.8340    -3.3360     0.6660 ca         1 0LQ      -0.111125
     35 C30         -4.5750    -3.8080    -0.6310 ca         1 0LQ      -0.103000
     36 C31         -3.7810    -3.0480    -1.5040 ca         1 0LQ      -0.111125
     37 C32         -3.2440    -1.8200    -1.0820 ca         1 0LQ      -0.092875
     38 H1          -0.4820    -0.4590    -1.3490 h1         1 0LQ       0.064200
     39 H2           3.0710     0.9700    -1.0510 h1         1 0LQ       0.070200
     40 H3           5.5720     1.1460    -0.3280 ha         1 0LQ       0.115375
     41 H4           6.9540     2.5540     1.1730 ha         1 0LQ       0.113875
     42 H5           5.9580     3.5430     3.2330 ha         1 0LQ       0.113750
     43 H6           3.5640     3.1240     3.7770 ha         1 0LQ       0.113875
     44 H7           2.1710     1.7330     2.2970 ha         1 0LQ       0.115375
     45 H8           4.6260    -1.1310     1.5080 ha         1 0LQ       0.115375
     46 H9           5.6000    -3.3450     0.9790 ha         1 0LQ       0.113875
     47 H10          5.1020    -4.4480    -1.2010 ha         1 0LQ       0.113750
     48 H11          3.6200    -3.3180    -2.8550 ha         1 0LQ       0.113875
     49 H12          2.6430    -1.0960    -2.3420 ha         1 0LQ       0.115375
     50 H13          0.2240     2.1460     0.2470 h1         1 0LQ       0.064200
     51 H14          1.5000     2.6780    -1.8330 h1         1 0LQ       0.060700
     52 H15          1.4040     0.9970    -2.3980 h1         1 0LQ       0.060700
     53 H16         -0.4410     1.5220    -3.4400 hn         1 0LQ       0.418000
     54 H18         -2.3410     1.0710    -2.2140 h1         1 0LQ       0.060700
     55 H19         -1.8830     2.3140    -1.0290 h1         1 0LQ       0.060700
     56 H20         -3.0730    -0.0240     1.8040 h1         1 0LQ       0.070200
     57 H21         -2.8240     2.4670     1.8530 ha         1 0LQ       0.115375
     58 H22         -4.1240     4.5050     1.2860 ha         1 0LQ       0.113875
     59 H23         -5.7970     4.4490    -0.5600 ha         1 0LQ       0.113750
     60 H24         -6.1730     2.3400    -1.8330 ha         1 0LQ       0.113875
     61 H25         -4.8930     0.3040    -1.2820 ha         1 0LQ       0.115375
     62 H26         -4.5090    -1.7560     2.0970 ha         1 0LQ       0.115375
     63 H27         -5.4510    -3.9220     1.3440 ha         1 0LQ       0.113875
     64 H28         -4.9910    -4.7590    -0.9580 ha         1 0LQ       0.113750
     65 H29         -3.5820    -3.4100    -2.5100 ha         1 0LQ       0.113875
     66 H30         -2.6430    -1.2460    -1.7790 ha         1 0LQ       0.115375
@<TRIPOS>BOND
     1     1     2 1   
     2     1    21 1   
     3     1    24 1   
     4     1    38 1   
     5     2     3 1   
     6     2    25 1   
     7     3     4 2   
     8     3     5 1   
     9     5     6 2   
    10     5     7 1   
    11     7     8 1   
    12     7    21 1   
    13     8     9 1   
    14     8    15 1   
    15     8    39 1   
    16     9    10 ar  
    17     9    14 ar  
    18    10    11 ar  
    19    10    40 1   
    20    11    12 ar  
    21    11    41 1   
    22    12    13 ar  
    23    12    42 1   
    24    13    14 ar  
    25    13    43 1   
    26    14    44 1   
    27    15    16 ar  
    28    15    20 ar  
    29    16    17 ar  
    30    16    45 1   
    31    17    18 ar  
    32    17    46 1   
    33    18    19 ar  
    34    18    47 1   
    35    19    20 ar  
    36    19    48 1   
    37    20    49 1   
    38    21    22 1   
    39    21    50 1   
    40    22    23 1   
    41    22    51 1   
    42    22    52 1   
    43    23    24 1   
    44    23    53 1   
    45    24    54 1   
    46    24    55 1   
    47    25    26 1   
    48    25    32 1   
    49    25    56 1   
    50    26    27 ar  
    51    26    31 ar  
    52    27    28 ar  
    53    27    57 1   
    54    28    29 ar  
    55    28    58 1   
    56    29    30 ar  
    57    29    59 1   
    58    30    31 ar  
    59    30    60 1   
    60    31    61 1   
    61    32    33 ar  
    62    32    37 ar  
    63    33    34 ar  
    64    33    62 1   
    65    34    35 ar  
    66    34    63 1   
    67    35    36 ar  
    68    35    64 1   
    69    36    37 ar  
    70    36    65 1   
    71    37    66 1   
@<TRIPOS>SUBSTRUCTURE
     1 0LQ         1 TEMP              0 ****  ****    0 ROOT
