@<TRIPOS>MOLECULE
0LR
   47    50     1     0     0
SMALL
abcg2


@<TRIPOS>ATOM
      1 C1          -0.7610    -2.9160    -1.3420 ca         1 0LR      -0.112000
      2 C2          -1.5380    -1.7760    -1.5050 ca         1 0LR      -0.104000
      3 C3          -2.0710    -1.1070    -0.4080 ca         1 0LR      -0.064300
      4 C4          -1.8080    -1.6110     0.8650 ca         1 0LR      -0.104000
      5 C5          -1.0270    -2.7450     1.0350 ca         1 0LR      -0.112000
      6 C6          -0.5000    -3.4040    -0.0690 ca         1 0LR      -0.117000
      7 C7          -2.9000     0.1370    -0.5960 c6         1 0LR      -0.015400
      8 C8          -2.2530     1.3530     0.0670 c6         1 0LR       0.178300
      9 C9          -5.1230     1.2610    -0.2400 c6         1 0LR       0.158800
     10 C10         -4.3340    -0.0290    -0.0810 c6         1 0LR      -0.070400
     11 N11         -4.4370     2.3370     0.4510 n7         1 0LR      -0.866400
     12 C12         -3.1300     2.5890    -0.1190 c6         1 0LR       0.127800
     13 O13         -0.9780     1.5210    -0.5060 os         1 0LR      -0.456000
     14 C14         -0.0610     2.2830     0.2330 c3         1 0LR       0.211900
     15 C15          1.2970     1.6310     0.2370 ca         1 0LR      -0.100300
     16 C16          2.4240     2.4270     0.5560 ca         1 0LR      -0.104000
     17 C17          3.6780     1.8880     0.6070 ca         1 0LR      -0.101000
     18 C18          1.4730     0.2990    -0.0260 ca         1 0LR      -0.070000
     19 C19          2.7600    -0.2890     0.0160 ca         1 0LR      -0.038000
     20 C20          3.8850     0.5140     0.3360 ca         1 0LR      -0.036000
     21 C21          5.1680    -0.0790     0.3700 ca         1 0LR      -0.101000
     22 C22          5.3280    -1.4110     0.1000 ca         1 0LR      -0.107000
     23 C23          4.2100    -2.2120    -0.2140 ca         1 0LR      -0.114000
     24 C24          2.9560    -1.6640    -0.2550 ca         1 0LR      -0.094000
     25 H1          -0.3550    -3.4200    -2.2110 ha         1 0LR       0.112000
     26 H2          -1.7300    -1.3980    -2.5030 ha         1 0LR       0.112500
     27 H3          -2.2110    -1.1120     1.7390 ha         1 0LR       0.112500
     28 H4          -0.8290    -3.1160     2.0330 ha         1 0LR       0.112000
     29 H5           0.1100    -4.2880     0.0630 ha         1 0LR       0.111000
     30 H6          -2.9570     0.3480    -1.6710 hc         1 0LR       0.060700
     31 H7          -2.1610     1.1630     1.1480 h1         1 0LR       0.049700
     32 H8          -5.2570     1.4680    -1.3150 h1         1 0LR       0.032200
     33 H9          -6.1200     1.1420     0.1880 h1         1 0LR       0.032200
     34 H10         -4.8250    -0.8380    -0.6260 hc         1 0LR       0.053200
     35 H11         -4.3210    -0.3180     0.9750 hc         1 0LR       0.053200
     36 H12         -4.9930     3.1810     0.4180 hn         1 0LR       0.416000
     37 H14         -2.6810     3.4460     0.3910 h1         1 0LR       0.037700
     38 H15         -3.1650     2.8340    -1.1940 h1         1 0LR       0.037700
     39 H16          0.0250     3.2970    -0.1780 h1         1 0LR       0.036200
     40 H17         -0.3930     2.4030     1.2730 h1         1 0LR       0.036200
     41 H18          2.2870     3.4840     0.7550 ha         1 0LR       0.108000
     42 H19          4.5310     2.5120     0.8470 ha         1 0LR       0.112000
     43 H20          0.6250    -0.3310    -0.2670 ha         1 0LR       0.135000
     44 H21          6.0260     0.5370     0.6120 ha         1 0LR       0.111000
     45 H22          6.3150    -1.8560     0.1270 ha         1 0LR       0.111000
     46 H23          4.3480    -3.2660    -0.4210 ha         1 0LR       0.110000
     47 H24          2.0940    -2.2760    -0.4900 ha         1 0LR       0.117000
@<TRIPOS>BOND
     1     1     2 ar  
     2     1     6 ar  
     3     1    25 1   
     4     2     3 ar  
     5     2    26 1   
     6     3     4 ar  
     7     3     7 1   
     8     4     5 ar  
     9     4    27 1   
    10     5     6 ar  
    11     5    28 1   
    12     6    29 1   
    13     7     8 1   
    14     7    10 1   
    15     7    30 1   
    16     8    12 1   
    17     8    13 1   
    18     8    31 1   
    19     9    10 1   
    20     9    11 1   
    21     9    32 1   
    22     9    33 1   
    23    10    34 1   
    24    10    35 1   
    25    11    12 1   
    26    11    36 1   
    27    12    37 1   
    28    12    38 1   
    29    13    14 1   
    30    14    15 1   
    31    14    39 1   
    32    14    40 1   
    33    15    16 ar  
    34    15    18 ar  
    35    16    17 ar  
    36    16    41 1   
    37    17    20 ar  
    38    17    42 1   
    39    18    19 ar  
    40    18    43 1   
    41    19    20 ar  
    42    19    24 ar  
    43    20    21 ar  
    44    21    22 ar  
    45    21    44 1   
    46    22    23 ar  
    47    22    45 1   
    48    23    24 ar  
    49    23    46 1   
    50    24    47 1   
@<TRIPOS>SUBSTRUCTURE
     1 0LR         1 TEMP              0 ****  ****    0 ROOT
