@<TRIPOS>MOLECULE
0LR
   47    50     1     0     0
SMALL
No Charge or Current Charge


@<TRIPOS>ATOM
      1 C1          -1.3150    -3.3010    -1.3340 ca         1 0LR      -0.112000
      2 C2          -1.8170    -2.0000    -1.5160 ca         1 0LR      -0.104000
      3 C3          -2.4360    -1.3170    -0.4490 ca         1 0LR      -0.064300
      4 C4          -2.5450    -1.9570     0.8040 ca         1 0LR      -0.104000
      5 C5          -2.0430    -3.2580     0.9850 ca         1 0LR      -0.112000
      6 C6          -1.4280    -3.9300    -0.0840 ca         1 0LR      -0.117000
      7 C7          -2.9690     0.1120    -0.6540 c6         1 0LR      -0.015400
      8 C8          -2.2600     1.1400     0.2740 c6         1 0LR       0.178300
      9 C9          -5.0320     1.6290    -0.6710 c6         1 0LR       0.158800
     10 C10         -4.5080     0.1880    -0.4570 c6         1 0LR      -0.070400
     11 N11         -4.3470     2.5880     0.2280 n7         1 0LR      -0.866400
     12 C12         -2.8660     2.5680     0.0700 c6         1 0LR       0.127800
     13 O13         -0.8360     1.1170     0.0230 os         1 0LR      -0.456000
     14 C14          0.0070     1.8420     0.9340 c3         1 0LR       0.211900
     15 C15          1.4580     1.4970     0.6220 ca         1 0LR      -0.100300
     16 C16          2.3950     2.5140     0.3530 ca         1 0LR      -0.104000
     17 C17          3.7340     2.1900     0.0700 ca         1 0LR      -0.101000
     18 C18          1.8750     0.1500     0.6080 ca         1 0LR      -0.070000
     19 C19          3.2130    -0.1800     0.3240 ca         1 0LR      -0.038000
     20 C20          4.1470     0.8450     0.0540 ca         1 0LR      -0.036000
     21 C21          5.4860     0.5150    -0.2310 ca         1 0LR      -0.101000
     22 C22          5.8930    -0.8310    -0.2460 ca         1 0LR      -0.107000
     23 C23          4.9630    -1.8500     0.0220 ca         1 0LR      -0.114000
     24 C24          3.6250    -1.5260     0.3060 ca         1 0LR      -0.094000
     25 H1          -0.8380    -3.8200    -2.1630 ha         1 0LR       0.112000
     26 H2          -1.7190    -1.5230    -2.4890 ha         1 0LR       0.112500
     27 H3          -3.0160    -1.4490     1.6420 ha         1 0LR       0.112500
     28 H4          -2.1310    -3.7440     1.9540 ha         1 0LR       0.112000
     29 H5          -1.0400    -4.9370     0.0570 ha         1 0LR       0.111000
     30 H6          -2.7590     0.4140    -1.6900 hc         1 0LR       0.060700
     31 H7          -2.4300     0.8410     1.3190 h1         1 0LR       0.049700
     32 H8          -4.8680     1.9270    -1.7180 h1         1 0LR       0.032200
     33 H9          -6.1160     1.6590    -0.4830 h1         1 0LR       0.032200
     34 H10         -5.0080    -0.4920    -1.1590 hc         1 0LR       0.053200
     35 H11         -4.7810    -0.1500     0.5520 hc         1 0LR       0.053200
     36 H12         -4.6950     3.5360     0.0310 hn         1 0LR       0.416000
     37 H14         -2.4240     3.2650     0.7950 h1         1 0LR       0.037700
     38 H15         -2.6050     2.9280    -0.9370 h1         1 0LR       0.037700
     39 H16         -0.1500     2.9240     0.8360 h1         1 0LR       0.036200
     40 H17         -0.2100     1.5580     1.9720 h1         1 0LR       0.036200
     41 H18          2.0880     3.5570     0.3620 ha         1 0LR       0.108000
     42 H19          4.4470     2.9840    -0.1370 ha         1 0LR       0.112000
     43 H20          1.1530    -0.6380     0.8140 ha         1 0LR       0.135000
     44 H21          6.2110     1.2980    -0.4400 ha         1 0LR       0.111000
     45 H22          6.9280    -1.0830    -0.4660 ha         1 0LR       0.111000
     46 H23          5.2790    -2.8910     0.0090 ha         1 0LR       0.110000
     47 H24          2.9110    -2.3210     0.5120 ha         1 0LR       0.117000
@<TRIPOS>BOND
     1     1     2 ar  
     2     1     6 ar  
     3     1    25 1   
     4     2     3 ar  
     5     2    26 1   
     6     3     4 ar  
     7     3     7 1   
     8     4     5 ar  
     9     4    27 1   
    10     5     6 ar  
    11     5    28 1   
    12     6    29 1   
    13     7     8 1   
    14     7    10 1   
    15     7    30 1   
    16     8    12 1   
    17     8    13 1   
    18     8    31 1   
    19     9    10 1   
    20     9    11 1   
    21     9    32 1   
    22     9    33 1   
    23    10    34 1   
    24    10    35 1   
    25    11    12 1   
    26    11    36 1   
    27    12    37 1   
    28    12    38 1   
    29    13    14 1   
    30    14    15 1   
    31    14    39 1   
    32    14    40 1   
    33    15    16 ar  
    34    15    18 ar  
    35    16    17 ar  
    36    16    41 1   
    37    17    20 ar  
    38    17    42 1   
    39    18    19 ar  
    40    18    43 1   
    41    19    20 ar  
    42    19    24 ar  
    43    20    21 ar  
    44    21    22 ar  
    45    21    44 1   
    46    22    23 ar  
    47    22    45 1   
    48    23    24 ar  
    49    23    46 1   
    50    24    47 1   
@<TRIPOS>SUBSTRUCTURE
     1 0LR         1 TEMP              0 ****  ****    0 ROOT
