@<TRIPOS>MOLECULE
0LS
   52    55     1     0     0
SMALL
No Charge or Current Charge


@<TRIPOS>ATOM
      1 N1          -2.1800     2.7850    -1.2380 n7         1 0LS      -0.826400
      2 C2          -0.8200     2.4350    -0.7320 c5         1 0LS       0.139800
      3 C3          -0.8650     0.9250    -0.3500 c5         1 0LS      -0.126700
      4 C4          -2.3750     0.7500    -0.0280 c5         1 0LS      -0.097700
      5 C5          -2.9570     1.5210    -1.2350 c5         1 0LS       0.139800
      6 C6          -2.8580    -0.7180     0.0880 c3         1 0LS      -0.019100
      7 C7          -4.3670    -0.8420     0.2610 ca         1 0LS      -0.082300
      8 C8           0.1040     0.5080     0.7870 c3         1 0LS       0.241800
      9 N9           1.5430     0.5680     0.4140 nh         1 0LS      -0.863200
     10 C10          2.2520    -0.6310     0.1430 ca         1 0LS       0.340000
     11 C11          2.1750     1.8310     0.2960 ca         1 0LS       0.283000
     12 C12          1.6190    -1.7440    -0.4510 ca         1 0LS      -0.175000
     13 C13          2.3380    -2.9250    -0.7150 ca         1 0LS      -0.063000
     14 C14          3.7000    -3.0050    -0.3860 ca         1 0LS       0.072000
     15 C15          4.3430    -1.9080     0.2060 ca         1 0LS      -0.063000
     16 C16          3.6210    -0.7290     0.4670 ca         1 0LS      -0.175000
     17 C17          2.9570     2.1230    -0.8400 ca         1 0LS      -0.126500
     18 C18          3.5810     3.3750    -0.9800 ca         1 0LS      -0.098500
     19 C19          3.4300     4.3500     0.0190 ca         1 0LS      -0.116000
     20 C20          2.6570     4.0700     1.1580 ca         1 0LS      -0.098500
     21 C21          2.0330     2.8170     1.2940 ca         1 0LS      -0.126500
     22 C22         -5.1810    -1.2370    -0.8200 ca         1 0LS      -0.107000
     23 C23         -6.5730    -1.3430    -0.6580 ca         1 0LS      -0.108500
     24 C24         -7.1610    -1.0550     0.5860 ca         1 0LS      -0.110000
     25 C25         -6.3550    -0.6600     1.6670 ca         1 0LS      -0.108500
     26 C26         -4.9630    -0.5540     1.5050 ca         1 0LS      -0.107000
     27 Cl2          4.5990    -4.4800    -0.7150 cl         1 0LS      -0.211000
     28 H1          -2.6100     3.4200    -0.5550 hn         1 0LS       0.397000
     29 H3          -0.0470     2.6250    -1.4900 h1         1 0LS       0.058700
     30 H4          -0.5780     3.0570     0.1420 h1         1 0LS       0.058700
     31 H5          -0.5980     0.3200    -1.2240 hc         1 0LS       0.066700
     32 H6          -2.6370     1.2500     0.9130 hc         1 0LS       0.047700
     33 H7          -4.0370     1.7040    -1.1380 h1         1 0LS       0.059700
     34 H8          -2.7950     0.9640    -2.1700 h1         1 0LS       0.059700
     35 H9          -2.5380    -1.2810    -0.7970 hc         1 0LS       0.048700
     36 H10         -2.3620    -1.2020     0.9380 hc         1 0LS       0.048700
     37 H11         -0.0930     1.1340     1.6670 h1         1 0LS       0.052200
     38 H12         -0.1480    -0.5130     1.1050 h1         1 0LS       0.052200
     39 H13          0.5700    -1.7010    -0.7260 ha         1 0LS       0.121000
     40 H14          1.8400    -3.7750    -1.1760 ha         1 0LS       0.125500
     41 H15          5.3970    -1.9700     0.4630 ha         1 0LS       0.125500
     42 H16          4.1290     0.1090     0.9360 ha         1 0LS       0.121000
     43 H17          3.0700     1.3790    -1.6230 ha         1 0LS       0.122000
     44 H18          4.1790     3.5890    -1.8640 ha         1 0LS       0.116500
     45 H19          3.9120     5.3190    -0.0870 ha         1 0LS       0.116000
     46 H20          2.5420     4.8220     1.9360 ha         1 0LS       0.116500
     47 H21          1.4510     2.6110     2.1870 ha         1 0LS       0.122000
     48 H22         -4.7350    -1.4590    -1.7870 ha         1 0LS       0.110000
     49 H23         -7.1960    -1.6480    -1.4960 ha         1 0LS       0.112500
     50 H24         -8.2380    -1.1370     0.7110 ha         1 0LS       0.113000
     51 H25         -6.8090    -0.4360     2.6300 ha         1 0LS       0.112500
     52 H26         -4.3460    -0.2460     2.3460 ha         1 0LS       0.110000
@<TRIPOS>BOND
     1     1     2 1   
     2     1     5 1   
     3     1    28 1   
     4     2     3 1   
     5     2    29 1   
     6     2    30 1   
     7     3     4 1   
     8     3     8 1   
     9     3    31 1   
    10     4     5 1   
    11     4     6 1   
    12     4    32 1   
    13     5    33 1   
    14     5    34 1   
    15     6     7 1   
    16     6    35 1   
    17     6    36 1   
    18     7    22 ar  
    19     7    26 ar  
    20     8     9 1   
    21     8    37 1   
    22     8    38 1   
    23     9    10 1   
    24     9    11 1   
    25    10    12 ar  
    26    10    16 ar  
    27    11    17 ar  
    28    11    21 ar  
    29    12    13 ar  
    30    12    39 1   
    31    13    14 ar  
    32    13    40 1   
    33    14    15 ar  
    34    14    27 1   
    35    15    16 ar  
    36    15    41 1   
    37    16    42 1   
    38    17    18 ar  
    39    17    43 1   
    40    18    19 ar  
    41    18    44 1   
    42    19    20 ar  
    43    19    45 1   
    44    20    21 ar  
    45    20    46 1   
    46    21    47 1   
    47    22    23 ar  
    48    22    48 1   
    49    23    24 ar  
    50    23    49 1   
    51    24    25 ar  
    52    24    50 1   
    53    25    26 ar  
    54    25    51 1   
    55    26    52 1   
@<TRIPOS>SUBSTRUCTURE
     1 0LS         1 TEMP              0 ****  ****    0 ROOT
