@<TRIPOS>MOLECULE
0LS
   52    55     1     0     0
SMALL
bcc


@<TRIPOS>ATOM
      1 N1          -2.1330     2.8490    -1.0730 n7         1 0LS      -0.771200
      2 C2          -0.7970     2.2690    -1.1820 c5         1 0LS       0.139800
      3 C3          -0.8270     0.8740    -0.4980 c5         1 0LS      -0.126700
      4 C4          -2.3140     0.6570    -0.1570 c5         1 0LS      -0.097700
      5 C5          -3.0280     1.7040    -1.0170 c5         1 0LS       0.139800
      6 C6          -2.7910    -0.7780    -0.3670 c3         1 0LS      -0.019100
      7 C7          -4.2470    -0.9540    -0.0330 ca         1 0LS      -0.082300
      8 C8           0.0370     0.7620     0.7570 c3         1 0LS       0.241800
      9 N9           1.4690     0.6990     0.5190 nh         1 0LS      -0.586400
     10 C10          2.1020    -0.5100     0.3090 ca         1 0LS       0.201600
     11 C11          2.1740     1.9150     0.3750 ca         1 0LS       0.144600
     12 C12          1.3810    -1.6920     0.0780 ca         1 0LS      -0.193000
     13 C13          2.0230    -2.9100    -0.0810 ca         1 0LS      -0.081000
     14 C14          3.4040    -2.9780    -0.0250 ca         1 0LS      -0.019600
     15 C15          4.1430    -1.8260     0.1980 ca         1 0LS      -0.081000
     16 C16          3.5020    -0.6130     0.3670 ca         1 0LS      -0.193000
     17 C17          2.8180     2.2260    -0.8220 ca         1 0LS      -0.144500
     18 C18          3.4900     3.4290    -0.9630 ca         1 0LS      -0.116500
     19 C19          3.5120     4.3470     0.0810 ca         1 0LS      -0.134000
     20 C20          2.8650     4.0450     1.2700 ca         1 0LS      -0.116500
     21 C21          2.2070     2.8320     1.4230 ca         1 0LS      -0.144500
     22 C22         -5.2130    -1.0230    -1.0330 ca         1 0LS      -0.125000
     23 C23         -6.5600    -1.1470    -0.7180 ca         1 0LS      -0.126500
     24 C24         -6.9630    -1.2050     0.6090 ca         1 0LS      -0.128000
     25 C25         -6.0090    -1.1410     1.6170 ca         1 0LS      -0.126500
     26 C26         -4.6640    -1.0170     1.2960 ca         1 0LS      -0.125000
     27 CL2          4.2110    -4.5020    -0.2320 cl         1 0LS      -0.119400
     28 H1          -2.1980     3.3450    -0.1930 hn         1 0LS       0.341800
     29 H3          -0.5350     2.1530    -2.2370 h1         1 0LS       0.058700
     30 H4          -0.0610     2.9470    -0.7480 h1         1 0LS       0.058700
     31 H5          -0.5070     0.1160    -1.2200 hc         1 0LS       0.066700
     32 H6          -2.4720     0.9290     0.8960 hc         1 0LS       0.047700
     33 H7          -4.0050     1.9900    -0.6260 h1         1 0LS       0.059700
     34 H8          -3.1840     1.3150    -2.0310 h1         1 0LS       0.059700
     35 H9          -2.6120    -1.0660    -1.4070 hc         1 0LS       0.048700
     36 H10         -2.1930    -1.4570     0.2490 hc         1 0LS       0.048700
     37 H11         -0.1650     1.6180     1.4060 h1         1 0LS       0.052200
     38 H12         -0.2560    -0.1160     1.3370 h1         1 0LS       0.052200
     39 H13          0.3030    -1.6830     0.0090 ha         1 0LS       0.139000
     40 H14          1.4330    -3.7990    -0.2580 ha         1 0LS       0.143500
     41 H15          5.2230    -1.8680     0.2540 ha         1 0LS       0.143500
     42 H16          4.1070     0.2620     0.5590 ha         1 0LS       0.139000
     43 H17          2.7880     1.5220    -1.6450 ha         1 0LS       0.140000
     44 H18          3.9870     3.6580    -1.8970 ha         1 0LS       0.134500
     45 H19          4.0300     5.2900    -0.0340 ha         1 0LS       0.134000
     46 H20          2.8800     4.7500     2.0910 ha         1 0LS       0.134500
     47 H21          1.7200     2.5950     2.3610 ha         1 0LS       0.140000
     48 H22         -4.9080    -0.9810    -2.0730 ha         1 0LS       0.128000
     49 H23         -7.2950    -1.2010    -1.5110 ha         1 0LS       0.130500
     50 H24         -8.0130    -1.3030     0.8570 ha         1 0LS       0.131000
     51 H25         -6.3110    -1.1920     2.6560 ha         1 0LS       0.130500
     52 H26         -3.9270    -0.9730     2.0900 ha         1 0LS       0.128000
@<TRIPOS>BOND
     1     1     2 1   
     2     1     5 1   
     3     1    28 1   
     4     2     3 1   
     5     2    29 1   
     6     2    30 1   
     7     3     4 1   
     8     3     8 1   
     9     3    31 1   
    10     4     5 1   
    11     4     6 1   
    12     4    32 1   
    13     5    33 1   
    14     5    34 1   
    15     6     7 1   
    16     6    35 1   
    17     6    36 1   
    18     7    22 ar  
    19     7    26 ar  
    20     8     9 1   
    21     8    37 1   
    22     8    38 1   
    23     9    10 1   
    24     9    11 1   
    25    10    12 ar  
    26    10    16 ar  
    27    11    17 ar  
    28    11    21 ar  
    29    12    13 ar  
    30    12    39 1   
    31    13    14 ar  
    32    13    40 1   
    33    14    15 ar  
    34    14    27 1   
    35    15    16 ar  
    36    15    41 1   
    37    16    42 1   
    38    17    18 ar  
    39    17    43 1   
    40    18    19 ar  
    41    18    44 1   
    42    19    20 ar  
    43    19    45 1   
    44    20    21 ar  
    45    20    46 1   
    46    21    47 1   
    47    22    23 ar  
    48    22    48 1   
    49    23    24 ar  
    50    23    49 1   
    51    24    25 ar  
    52    24    50 1   
    53    25    26 ar  
    54    25    51 1   
    55    26    52 1   
@<TRIPOS>SUBSTRUCTURE
     1 0LS         1 TEMP              0 ****  ****    0 ROOT
