@<TRIPOS>MOLECULE
0LT
   71    73     1     0     0
SMALL
bcc


@<TRIPOS>ATOM
      1 C1          -0.3150     1.4050     1.2610 c          1 0LT       0.681700
      2 N2           0.6320     1.4490     0.3050 n          1 0LT      -0.468800
      3 C3           2.0100     1.1500     0.6710 c3         1 0LT       0.105000
      4 C4          -1.7200     1.7680     0.8800 ca         1 0LT      -0.136600
      5 C5           2.4000    -0.3180     0.5620 c5         1 0LT      -0.085700
      6 C6          -2.6110     0.7510     0.5280 ca         1 0LT      -0.166000
      7 C7          -3.9380     1.0410     0.2640 ca         1 0LT       0.116100
      8 N8           2.7600    -2.3910     1.5080 n7         1 0LT      -0.812200
      9 C9           3.9290    -0.5080     0.6730 c5         1 0LT      -0.063700
     10 O10         -0.0850     1.0760     2.4180 o          1 0LT      -0.597100
     11 C11         -4.3930     2.3740     0.3560 ca         1 0LT       0.122100
     12 C12         -2.1680     3.0700     0.9790 ca         1 0LT      -0.101000
     13 C13          4.5960    -0.5230    -0.7060 c3         1 0LT      -0.026100
     14 C14          0.3720     1.9580    -1.0470 c3         1 0LT       0.115700
     15 C15         -3.5030     3.3720     0.7130 ca         1 0LT      -0.193000
     16 C16          1.8580    -1.2590     1.6320 c5         1 0LT       0.157800
     17 C17          4.0990    -1.8170     1.4700 c5         1 0LT       0.154800
     18 O18         -4.8690     0.1350    -0.0840 os         1 0LT      -0.302900
     19 C19          6.0970    -0.5450    -0.6410 ca         1 0LT      -0.078300
     20 O20         -5.6960     2.5600     0.0800 os         1 0LT      -0.295900
     21 C21         -5.7210    -2.0330    -0.5260 c3         1 0LT      -0.085400
     22 O22         -6.5440    -4.2150    -0.9920 os         1 0LT      -0.404600
     23 C23         -4.4860    -1.2260    -0.1840 c3         1 0LT       0.139400
     24 C24         -5.3730    -3.5010    -0.6900 c3         1 0LT       0.137400
     25 C25          0.8500     3.3980    -1.1960 c3         1 0LT      -0.106100
     26 C26          0.9560     1.0540    -2.1250 c3         1 0LT      -0.106100
     27 C27          6.8060     0.5890    -0.2440 ca         1 0LT      -0.126500
     28 C28          6.8160    -1.6970    -0.9510 ca         1 0LT      -0.126500
     29 C29         -6.2080     3.8770     0.1330 c3         1 0LT       0.121700
     30 C30         -6.3080    -5.5880    -1.1750 c3         1 0LT       0.123700
     31 C31          8.1910     0.5710    -0.1580 ca         1 0LT      -0.127000
     32 C32          8.2030    -1.7200    -0.8660 ca         1 0LT      -0.127000
     33 C33          8.8960    -0.5860    -0.4680 ca         1 0LT      -0.130000
     34 H1           2.6580     1.7330     0.0130 h1         1 0LT       0.053200
     35 H2           2.2050     1.5110     1.6820 h1         1 0LT       0.053200
     36 H3           2.0780    -0.6990    -0.4120 hc         1 0LT       0.062700
     37 H4          -2.2460    -0.2650     0.4540 ha         1 0LT       0.144000
     38 H5           2.6580    -3.0420     2.2750 hn         1 0LT       0.356800
     39 H7           4.3530     0.3200     1.2500 hc         1 0LT       0.049700
     40 H8          -1.4920     3.8690     1.2550 ha         1 0LT       0.137000
     41 H9           4.2350    -1.3940    -1.2610 hc         1 0LT       0.049200
     42 H10          4.2670     0.3580    -1.2650 hc         1 0LT       0.049200
     43 H11         -0.7090     1.9530    -1.1810 h1         1 0LT       0.067700
     44 H12         -3.8290     4.4000     0.7920 ha         1 0LT       0.139000
     45 H13          1.8990    -0.7740     2.6180 h1         1 0LT       0.048200
     46 H14          0.8240    -1.5600     1.4540 h1         1 0LT       0.048200
     47 H15          4.4920    -1.5910     2.4700 h1         1 0LT       0.038700
     48 H16          4.8050    -2.5060     0.9990 h1         1 0LT       0.038700
     49 H17         -6.4650    -1.9170     0.2650 hc         1 0LT       0.070200
     50 H18         -6.1580    -1.6570    -1.4550 hc         1 0LT       0.070200
     51 H19         -3.7200    -1.3490    -0.9590 h1         1 0LT       0.033200
     52 H20         -4.0530    -1.5700     0.7630 h1         1 0LT       0.033200
     53 H21         -4.6280    -3.6230    -1.4900 h1         1 0LT       0.019700
     54 H22         -4.9110    -3.8840     0.2320 h1         1 0LT       0.019700
     55 H23          1.9290     3.4880    -1.0630 hc         1 0LT       0.042033
     56 H24          0.6100     3.7720    -2.1920 hc         1 0LT       0.042033
     57 H25          0.3650     4.0490    -0.4680 hc         1 0LT       0.042033
     58 H26          0.5790     0.0350    -2.0370 hc         1 0LT       0.042033
     59 H27          0.6620     1.4310    -3.1040 hc         1 0LT       0.042033
     60 H28          2.0460     1.0230    -2.1020 hc         1 0LT       0.042033
     61 H29          6.2690     1.5000    -0.0030 ha         1 0LT       0.128000
     62 H30          6.2840    -2.5860    -1.2690 ha         1 0LT       0.128000
     63 H31         -6.1270     4.3070     1.1340 h1         1 0LT       0.040700
     64 H32         -5.7060     4.5390    -0.5780 h1         1 0LT       0.040700
     65 H33         -7.2590     3.8100    -0.1350 h1         1 0LT       0.040700
     66 H34         -7.2540    -6.0630    -1.4290 h1         1 0LT       0.029033
     67 H35         -5.5960    -5.7780    -1.9870 h1         1 0LT       0.029033
     68 H36         -5.9160    -6.0630    -0.2670 h1         1 0LT       0.029033
     69 H37          8.7220     1.4630     0.1510 ha         1 0LT       0.129500
     70 H38          8.7410    -2.6270    -1.1150 ha         1 0LT       0.129500
     71 H39          9.9760    -0.6010    -0.4030 ha         1 0LT       0.130000
@<TRIPOS>BOND
     1     1     2 1   
     2     1     4 1   
     3     1    10 2   
     4     2     3 1   
     5     2    14 1   
     6     3     5 1   
     7     3    34 1   
     8     3    35 1   
     9     4     6 ar  
    10     4    12 ar  
    11     5     9 1   
    12     5    16 1   
    13     5    36 1   
    14     6     7 ar  
    15     6    37 1   
    16     7    11 ar  
    17     7    18 1   
    18     8    16 1   
    19     8    17 1   
    20     8    38 1   
    21     9    13 1   
    22     9    17 1   
    23     9    39 1   
    24    11    15 ar  
    25    11    20 1   
    26    12    15 ar  
    27    12    40 1   
    28    13    19 1   
    29    13    41 1   
    30    13    42 1   
    31    14    25 1   
    32    14    26 1   
    33    14    43 1   
    34    15    44 1   
    35    16    45 1   
    36    16    46 1   
    37    17    47 1   
    38    17    48 1   
    39    18    23 1   
    40    19    27 ar  
    41    19    28 ar  
    42    20    29 1   
    43    21    23 1   
    44    21    24 1   
    45    21    49 1   
    46    21    50 1   
    47    22    24 1   
    48    22    30 1   
    49    23    51 1   
    50    23    52 1   
    51    24    53 1   
    52    24    54 1   
    53    25    55 1   
    54    25    56 1   
    55    25    57 1   
    56    26    58 1   
    57    26    59 1   
    58    26    60 1   
    59    27    31 ar  
    60    27    61 1   
    61    28    32 ar  
    62    28    62 1   
    63    29    63 1   
    64    29    64 1   
    65    29    65 1   
    66    30    66 1   
    67    30    67 1   
    68    30    68 1   
    69    31    33 ar  
    70    31    69 1   
    71    32    33 ar  
    72    32    70 1   
    73    33    71 1   
@<TRIPOS>SUBSTRUCTURE
     1 0LT         1 TEMP              0 ****  ****    0 ROOT
