@<TRIPOS>MOLECULE
0LT
   71    73     1     0     0
SMALL
No Charge or Current Charge


@<TRIPOS>ATOM
      1 C1          -0.1620     2.5260     0.7590 c          1 0LT       0.614700
      2 N2           0.5080     1.7770    -0.2430 n          1 0LT      -0.401800
      3 C3           1.9600     1.4860    -0.0830 c3         1 0LT       0.105000
      4 C4          -1.6760     2.4550     0.8280 ca         1 0LT      -0.136600
      5 C5           2.2370     0.1000     0.5470 c5         1 0LT      -0.085700
      6 C6          -2.3780     1.2840     0.4610 ca         1 0LT      -0.148000
      7 C7          -3.7880     1.2270     0.5470 ca         1 0LT       0.116100
      8 N8           2.5240    -1.1730     2.6010 n7         1 0LT      -0.867400
      9 C9           3.7360    -0.2490     0.7440 c5         1 0LT      -0.063700
     10 O10          0.4610     3.1360     1.6200 o          1 0LT      -0.597100
     11 C11         -4.5060     2.3460     1.0300 ca         1 0LT       0.122100
     12 C12         -2.4020     3.5530     1.3320 ca         1 0LT      -0.083000
     13 C13          4.5430    -0.4530    -0.5620 c3         1 0LT      -0.026100
     14 C14         -0.0390     1.7520    -1.6330 c3         1 0LT       0.115700
     15 C15         -3.8030     3.5060     1.4270 ca         1 0LT      -0.175000
     16 C16          1.7270    -0.0620     2.0050 c5         1 0LT       0.157800
     17 C17          3.5630    -1.5290     1.6000 c5         1 0LT       0.154800
     18 O18         -4.4950     0.0950     0.1730 os         1 0LT      -0.326100
     19 C19          5.9710    -0.9270    -0.3180 ca         1 0LT      -0.078300
     20 O20         -5.8880     2.2680     1.1060 os         1 0LT      -0.319100
     21 C21         -4.9500    -2.1030    -0.6810 c3         1 0LT      -0.085400
     22 O22         -5.4840    -4.2870    -1.5280 os         1 0LT      -0.451000
     23 C23         -3.8530    -1.0750    -0.3590 c3         1 0LT       0.162600
     24 C24         -4.3800    -3.4070    -1.2660 c3         1 0LT       0.160600
     25 C25          0.5380     2.8910    -2.5050 c3         1 0LT      -0.106100
     26 C26          0.1400     0.3800    -2.3210 c3         1 0LT      -0.106100
     27 C27          6.9520    -0.0190     0.1250 ca         1 0LT      -0.108500
     28 C28          6.3200    -2.2770    -0.5240 ca         1 0LT      -0.108500
     29 C29         -6.6980     3.3550     1.5850 c3         1 0LT       0.144900
     30 C30         -5.1120    -5.5600    -2.0820 c3         1 0LT       0.146900
     31 C31          8.2680    -0.4550     0.3580 ca         1 0LT      -0.109000
     32 C32          7.6360    -2.7120    -0.2910 ca         1 0LT      -0.109000
     33 C33          8.6110    -1.8020     0.1500 ca         1 0LT      -0.112000
     34 H1           2.4510     1.5180    -1.0620 h1         1 0LT       0.053200
     35 H2           2.4420     2.2610     0.5270 h1         1 0LT       0.053200
     36 H3           1.7560    -0.6430    -0.1000 hc         1 0LT       0.062700
     37 H4          -1.8130     0.4210     0.1230 ha         1 0LT       0.126000
     38 H5           2.9900    -0.8070     3.4420 hn         1 0LT       0.412000
     39 H7           4.2470     0.5330     1.3200 hc         1 0LT       0.049700
     40 H8          -1.8780     4.4550     1.6430 ha         1 0LT       0.119000
     41 H9           4.0190    -1.1660    -1.2100 hc         1 0LT       0.049200
     42 H10          4.5720     0.4880    -1.1250 hc         1 0LT       0.049200
     43 H11         -1.1190     1.9380    -1.5960 h1         1 0LT       0.067700
     44 H12         -4.3240     4.3780     1.8100 ha         1 0LT       0.121000
     45 H13          1.8960     0.8620     2.5770 h1         1 0LT       0.048200
     46 H14          0.6490    -0.2740     2.0360 h1         1 0LT       0.048200
     47 H15          4.5000    -1.8440     2.0790 h1         1 0LT       0.038700
     48 H16          3.2120    -2.3620     0.9740 h1         1 0LT       0.038700
     49 H17         -5.5090    -2.3320     0.2340 hc         1 0LT       0.070200
     50 H18         -5.6550    -1.6650    -1.3980 hc         1 0LT       0.070200
     51 H19         -3.2990    -0.8310    -1.2760 h1         1 0LT       0.033200
     52 H20         -3.1540    -1.5020     0.3730 h1         1 0LT       0.033200
     53 H21         -3.8310    -3.1870    -2.1910 h1         1 0LT       0.019700
     54 H22         -3.6850    -3.8600    -0.5470 h1         1 0LT       0.019700
     55 H23          1.6090     2.7570    -2.6940 hc         1 0LT       0.042033
     56 H24          0.0270     2.9250    -3.4750 hc         1 0LT       0.042033
     57 H25          0.3920     3.8600    -2.0140 hc         1 0LT       0.042033
     58 H26         -0.2860    -0.4190    -1.7020 hc         1 0LT       0.042033
     59 H27         -0.3740     0.3670    -3.2890 hc         1 0LT       0.042033
     60 H28          1.1980     0.1530    -2.4970 hc         1 0LT       0.042033
     61 H29          6.6950     1.0250     0.2900 ha         1 0LT       0.110000
     62 H30          5.5710    -2.9900    -0.8620 ha         1 0LT       0.110000
     63 H31         -6.4390     3.6090     2.6210 h1         1 0LT       0.040700
     64 H32         -6.5640     4.2470     0.9590 h1         1 0LT       0.040700
     65 H33         -7.7590     3.0780     1.5580 h1         1 0LT       0.040700
     66 H34         -6.0030    -6.1770    -2.2550 h1         1 0LT       0.029033
     67 H35         -4.5940    -5.4320    -3.0420 h1         1 0LT       0.029033
     68 H36         -4.4480    -6.1050    -1.3980 h1         1 0LT       0.029033
     69 H37          9.0220     0.2510     0.7000 ha         1 0LT       0.111500
     70 H38          7.8990    -3.7560    -0.4510 ha         1 0LT       0.111500
     71 H39          9.6290    -2.1390     0.3310 ha         1 0LT       0.112000
@<TRIPOS>BOND
     1     1     2 1   
     2     1     4 1   
     3     1    10 2   
     4     2     3 1   
     5     2    14 1   
     6     3     5 1   
     7     3    34 1   
     8     3    35 1   
     9     4     6 ar  
    10     4    12 ar  
    11     5     9 1   
    12     5    16 1   
    13     5    36 1   
    14     6     7 ar  
    15     6    37 1   
    16     7    11 ar  
    17     7    18 1   
    18     8    16 1   
    19     8    17 1   
    20     8    38 1   
    21     9    13 1   
    22     9    17 1   
    23     9    39 1   
    24    11    15 ar  
    25    11    20 1   
    26    12    15 ar  
    27    12    40 1   
    28    13    19 1   
    29    13    41 1   
    30    13    42 1   
    31    14    25 1   
    32    14    26 1   
    33    14    43 1   
    34    15    44 1   
    35    16    45 1   
    36    16    46 1   
    37    17    47 1   
    38    17    48 1   
    39    18    23 1   
    40    19    27 ar  
    41    19    28 ar  
    42    20    29 1   
    43    21    23 1   
    44    21    24 1   
    45    21    49 1   
    46    21    50 1   
    47    22    24 1   
    48    22    30 1   
    49    23    51 1   
    50    23    52 1   
    51    24    53 1   
    52    24    54 1   
    53    25    55 1   
    54    25    56 1   
    55    25    57 1   
    56    26    58 1   
    57    26    59 1   
    58    26    60 1   
    59    27    31 ar  
    60    27    61 1   
    61    28    32 ar  
    62    28    62 1   
    63    29    63 1   
    64    29    64 1   
    65    29    65 1   
    66    30    66 1   
    67    30    67 1   
    68    30    68 1   
    69    31    33 ar  
    70    31    69 1   
    71    32    33 ar  
    72    32    70 1   
    73    33    71 1   
@<TRIPOS>SUBSTRUCTURE
     1 0LT         1 TEMP              0 ****  ****    0 ROOT
