@<TRIPOS>MOLECULE
0LU
   46    49     1     0     0
SMALL
bcc


@<TRIPOS>ATOM
      1 C1          -1.1210     1.2590     0.7880 ca         1 0LU      -0.066800
      2 C2          -0.9260    -0.2330     0.8880 c6         1 0LU       0.036900
      3 C3          -1.8050     1.8110    -0.2930 ca         1 0LU       0.018400
      4 C4          -0.6400     2.1210     1.7690 ca         1 0LU      -0.106000
      5 C5          -2.2230    -0.9510     0.6060 ca         1 0LU      -0.066800
      6 C6           0.1670    -0.7810    -0.0550 c3         1 0LU      -0.109400
      7 S7          -2.5310     0.7660    -1.5170 ss         1 0LU      -0.201800
      8 C8          -1.9500     3.1900    -0.4240 ca         1 0LU      -0.103000
      9 C9          -0.7830     3.4940     1.6530 ca         1 0LU      -0.122000
     10 C10         -3.0010    -0.5970    -0.4950 ca         1 0LU       0.018400
     11 C11         -2.6450    -2.0120     1.4000 ca         1 0LU      -0.106000
     12 C12          1.6030    -0.4580     0.3520 c3         1 0LU       0.147100
     13 C13         -1.4250     4.0310     0.5430 ca         1 0LU      -0.124500
     14 C14         -4.1550    -1.3060    -0.8140 ca         1 0LU      -0.103000
     15 C15         -3.7920    -2.7280     1.0880 ca         1 0LU      -0.122000
     16 C16          2.5720    -1.1760    -0.5860 c3         1 0LU       0.139800
     17 O17          1.8440     0.9290     0.4380 oh         1 0LU      -0.588800
     18 C18         -4.5420    -2.3800    -0.0270 ca         1 0LU      -0.124500
     19 N19          3.9530    -1.1550    -0.1580 n3         1 0LU      -0.710600
     20 C20          4.7600    -2.1580    -0.8360 c5         1 0LU       0.157300
     21 C21          4.6660     0.0940    -0.3890 c5         1 0LU       0.157300
     22 C22          6.1890    -1.8020    -0.4400 c5         1 0LU      -0.079900
     23 C23          6.1440    -0.2760    -0.2230 c5         1 0LU      -0.079900
     24 H1          -0.6240    -0.4700     1.9130 hc         1 0LU       0.065700
     25 H2          -0.1330     1.7040     2.6310 ha         1 0LU       0.134500
     26 H3           0.0660    -1.8700    -0.0720 hc         1 0LU       0.056700
     27 H4          -0.0180    -0.4450    -1.0810 hc         1 0LU       0.056700
     28 H5          -2.4880     3.6020    -1.2690 ha         1 0LU       0.141500
     29 H6          -0.3920     4.1440     2.4240 ha         1 0LU       0.133500
     30 H7          -2.0560    -2.2890     2.2660 ha         1 0LU       0.134500
     31 H8           1.7740    -0.8440     1.3630 h1         1 0LU       0.081700
     32 H9          -1.5390     5.1030     0.4410 ha         1 0LU       0.133500
     33 H10         -4.7570    -1.0110    -1.6650 ha         1 0LU       0.141500
     34 H11         -4.0990    -3.5550     1.7140 ha         1 0LU       0.133500
     35 H12          2.2600    -2.2230    -0.6330 h1         1 0LU       0.031200
     36 H13          2.4560    -0.7760    -1.6120 h1         1 0LU       0.031200
     37 H14          1.6120     1.3350    -0.4050 ho         1 0LU       0.400000
     38 H15         -5.4400    -2.9300    -0.2770 ha         1 0LU       0.133500
     39 H17          4.4670    -3.1650    -0.5330 h1         1 0LU       0.036950
     40 H18          4.6450    -2.0990    -1.9320 h1         1 0LU       0.036950
     41 H19          4.4790     0.4710    -1.4090 h1         1 0LU       0.036950
     42 H20          4.3480     0.8720     0.3020 h1         1 0LU       0.036950
     43 H21          6.4680    -2.3130     0.4830 hc         1 0LU       0.045700
     44 H22          6.9060    -2.1010    -1.2040 hc         1 0LU       0.045700
     45 H23          6.7650     0.2640    -0.9380 hc         1 0LU       0.045700
     46 H24          6.5050    -0.0150     0.7720 hc         1 0LU       0.045700
@<TRIPOS>BOND
     1     1     2 1   
     2     1     3 ar  
     3     1     4 ar  
     4     2     5 1   
     5     2     6 1   
     6     2    24 1   
     7     3     7 1   
     8     3     8 ar  
     9     4     9 ar  
    10     4    25 1   
    11     5    10 ar  
    12     5    11 ar  
    13     6    12 1   
    14     6    26 1   
    15     6    27 1   
    16     7    10 1   
    17     8    13 ar  
    18     8    28 1   
    19     9    13 ar  
    20     9    29 1   
    21    10    14 ar  
    22    11    15 ar  
    23    11    30 1   
    24    12    16 1   
    25    12    17 1   
    26    12    31 1   
    27    13    32 1   
    28    14    18 ar  
    29    14    33 1   
    30    15    18 ar  
    31    15    34 1   
    32    16    19 1   
    33    16    35 1   
    34    16    36 1   
    35    17    37 1   
    36    18    38 1   
    37    19    20 1   
    38    19    21 1   
    39    20    22 1   
    40    20    39 1   
    41    20    40 1   
    42    21    23 1   
    43    21    41 1   
    44    21    42 1   
    45    22    23 1   
    46    22    43 1   
    47    22    44 1   
    48    23    45 1   
    49    23    46 1   
@<TRIPOS>SUBSTRUCTURE
     1 0LU         1 TEMP              0 ****  ****    0 ROOT
