@<TRIPOS>MOLECULE
0LU
   46    49     1     0     0
SMALL
No Charge or Current Charge


@<TRIPOS>ATOM
      1 C1          -1.0720     1.1890     0.7540 ca         1 0LU      -0.066800
      2 C2          -0.9740    -0.3400     0.8400 c6         1 0LU       0.036900
      3 C3          -1.8020     1.8090    -0.2820 ca         1 0LU      -0.108500
      4 C4          -0.4100     1.9910     1.7080 ca         1 0LU      -0.088000
      5 C5          -2.3250    -1.0140     0.5760 ca         1 0LU      -0.066800
      6 C6           0.1070    -0.9300    -0.1220 c3         1 0LU      -0.109400
      7 S7          -2.6990     0.8340    -1.4870 ss         1 0LU       0.052000
      8 C8          -1.8470     3.2120    -0.3710 ca         1 0LU      -0.085000
      9 C9          -0.4600     3.3920     1.6170 ca         1 0LU      -0.104000
     10 C10         -3.1650    -0.5620    -0.4660 ca         1 0LU      -0.108500
     11 C11         -2.7280    -2.1140     1.3610 ca         1 0LU      -0.088000
     12 C12          1.5550    -0.4060     0.0630 c3         1 0LU       0.170300
     13 C13         -1.1760     4.0030     0.5760 ca         1 0LU      -0.106500
     14 C14         -4.3890    -1.2110    -0.7150 ca         1 0LU      -0.085000
     15 C15         -3.9530    -2.7560     1.1110 ca         1 0LU      -0.104000
     16 C16          2.6020    -1.3020    -0.6770 c3         1 0LU       0.139800
     17 O17          1.6200     0.9460    -0.4290 oh         1 0LU      -0.651000
     18 C18         -4.7830    -2.3050     0.0730 ca         1 0LU      -0.106500
     19 N19          4.0140    -1.1730    -0.2250 n3         1 0LU      -0.710600
     20 C20          4.9640    -2.0890    -0.8870 c5         1 0LU       0.157300
     21 C21          4.6480     0.1510    -0.4210 c5         1 0LU       0.157300
     22 C22          6.2970    -1.6620    -0.2260 c5         1 0LU      -0.079900
     23 C23          6.1280    -0.1230    -0.0290 c5         1 0LU      -0.079900
     24 H1          -0.6510    -0.6070     1.8570 hc         1 0LU       0.065700
     25 H2           0.1530     1.5290     2.5160 ha         1 0LU       0.116500
     26 H3           0.1200    -2.0170     0.0200 hc         1 0LU       0.056700
     27 H4          -0.1910    -0.7760    -1.1670 hc         1 0LU       0.056700
     28 H5          -2.4090     3.6890    -1.1710 ha         1 0LU       0.123500
     29 H6           0.0570     4.0030     2.3540 ha         1 0LU       0.115500
     30 H7          -2.0890    -2.4780     2.1620 ha         1 0LU       0.116500
     31 H8           1.7920    -0.4390     1.1360 h1         1 0LU       0.081700
     32 H9          -1.2150     5.0870     0.5050 ha         1 0LU       0.115500
     33 H10         -5.0350    -0.8640    -1.5180 ha         1 0LU       0.123500
     34 H11         -4.2560    -3.6040     1.7210 ha         1 0LU       0.115500
     35 H12          2.3000    -2.3490    -0.5360 h1         1 0LU       0.031200
     36 H13          2.5320    -1.1040    -1.7560 h1         1 0LU       0.031200
     37 H14          0.8070     1.3940    -0.1070 ho         1 0LU       0.439000
     38 H15         -5.7310    -2.8020    -0.1220 ha         1 0LU       0.115500
     39 H17          4.7310    -3.1470    -0.7010 h1         1 0LU       0.036950
     40 H18          4.9860    -1.9280    -1.9750 h1         1 0LU       0.036950
     41 H19          4.5740     0.4740    -1.4700 h1         1 0LU       0.036950
     42 H20          4.2030     0.9330     0.2090 h1         1 0LU       0.036950
     43 H21          6.4320    -2.1650     0.7380 hc         1 0LU       0.045700
     44 H22          7.1630    -1.9150    -0.8480 hc         1 0LU       0.045700
     45 H23          6.8180     0.4560    -0.6540 hc         1 0LU       0.045700
     46 H24          6.3210     0.1610     1.0120 hc         1 0LU       0.045700
@<TRIPOS>BOND
     1     1     2 1   
     2     1     3 ar  
     3     1     4 ar  
     4     2     5 1   
     5     2     6 1   
     6     2    24 1   
     7     3     7 1   
     8     3     8 ar  
     9     4     9 ar  
    10     4    25 1   
    11     5    10 ar  
    12     5    11 ar  
    13     6    12 1   
    14     6    26 1   
    15     6    27 1   
    16     7    10 1   
    17     8    13 ar  
    18     8    28 1   
    19     9    13 ar  
    20     9    29 1   
    21    10    14 ar  
    22    11    15 ar  
    23    11    30 1   
    24    12    16 1   
    25    12    17 1   
    26    12    31 1   
    27    13    32 1   
    28    14    18 ar  
    29    14    33 1   
    30    15    18 ar  
    31    15    34 1   
    32    16    19 1   
    33    16    35 1   
    34    16    36 1   
    35    17    37 1   
    36    18    38 1   
    37    19    20 1   
    38    19    21 1   
    39    20    22 1   
    40    20    39 1   
    41    20    40 1   
    42    21    23 1   
    43    21    41 1   
    44    21    42 1   
    45    22    23 1   
    46    22    43 1   
    47    22    44 1   
    48    23    45 1   
    49    23    46 1   
@<TRIPOS>SUBSTRUCTURE
     1 0LU         1 TEMP              0 ****  ****    0 ROOT
