@<TRIPOS>MOLECULE
0LV
   27    28     1     0     0
SMALL
No Charge or Current Charge


@<TRIPOS>ATOM
      1 CAH         -1.9620     1.1850    -0.1150 c5         1 0LV      -0.043100
      2 CAM         -2.1390    -0.3670     0.1430 c5         1 0LV       0.174000
      3 CAA         -3.2250    -1.0070    -0.7510 c3         1 0LV      -0.095600
      4 CAB         -2.4570    -0.6740     1.6280 c3         1 0LV      -0.095600
      5 OAI         -0.8580    -1.0150    -0.1660 os         1 0LV      -0.344100
      6 CAL          0.0750    -0.0140    -0.1550 ca         1 0LV       0.126100
      7 CAK         -0.4700     1.2480    -0.1230 ca         1 0LV      -0.173300
      8 CAF          0.3420     2.3920    -0.1260 ca         1 0LV      -0.057000
      9 CAD          1.7400     2.2210    -0.1620 ca         1 0LV      -0.154000
     10 CAE          2.3000     0.9250    -0.2020 ca         1 0LV      -0.052000
     11 CAJ          1.4670    -0.2160    -0.2000 ca         1 0LV      -0.112300
     12 CAG          2.0690    -1.6150    -0.2550 c3         1 0LV       0.219900
     13 OAC          2.8560    -1.8680     0.9150 oh         1 0LV      -0.662000
     14 H1          -2.3880     1.5010    -1.0740 hc         1 0LV       0.061700
     15 H2          -2.4150     1.8020     0.6710 hc         1 0LV       0.061700
     16 H3          -2.9990    -0.8560    -1.8130 hc         1 0LV       0.046700
     17 H4          -3.3020    -2.0870    -0.5770 hc         1 0LV       0.046700
     18 H5          -4.2100    -0.5650    -0.5550 hc         1 0LV       0.046700
     19 H6          -3.4210    -0.2420     1.9240 hc         1 0LV       0.046700
     20 H7          -2.5060    -1.7540     1.8110 hc         1 0LV       0.046700
     21 H8          -1.6900    -0.2580     2.2920 hc         1 0LV       0.046700
     22 H9          -0.0960     3.3870    -0.1040 ha         1 0LV       0.113000
     23 H10          2.3910     3.0930    -0.1650 ha         1 0LV       0.114000
     24 H11          3.3810     0.8070    -0.2340 ha         1 0LV       0.131000
     25 H12          1.2730    -2.3650    -0.3450 h1         1 0LV       0.030700
     26 H13          2.6930    -1.6940    -1.1560 h1         1 0LV       0.030700
     27 H14          3.2050    -2.7830     0.8260 ho         1 0LV       0.445000
@<TRIPOS>BOND
     1     1     2 1   
     2     1     7 1   
     3     1    14 1   
     4     1    15 1   
     5     2     3 1   
     6     2     4 1   
     7     2     5 1   
     8     3    16 1   
     9     3    17 1   
    10     3    18 1   
    11     4    19 1   
    12     4    20 1   
    13     4    21 1   
    14     5     6 1   
    15     6     7 ar  
    16     6    11 ar  
    17     7     8 ar  
    18     8     9 ar  
    19     8    22 1   
    20     9    10 ar  
    21     9    23 1   
    22    10    11 ar  
    23    10    24 1   
    24    11    12 1   
    25    12    13 1   
    26    12    25 1   
    27    12    26 1   
    28    13    27 1   
@<TRIPOS>SUBSTRUCTURE
     1 0LV         1 TEMP              0 ****  ****    0 ROOT
