@<TRIPOS>MOLECULE
0LV
   27    28     1     0     0
SMALL
abcg2


@<TRIPOS>ATOM
      1 CAH         -1.9550     1.1440    -0.1560 c5         1 0LV      -0.043100
      2 CAM         -2.1610    -0.3670     0.1060 c5         1 0LV       0.174000
      3 CAA         -3.1360    -1.0160    -0.8540 c3         1 0LV      -0.095600
      4 CAB         -2.5390    -0.6290     1.5550 c3         1 0LV      -0.095600
      5 OAI         -0.8530    -0.9690    -0.1190 os         1 0LV      -0.344100
      6 CAL          0.0780     0.0050    -0.0860 ca         1 0LV       0.126100
      7 CAK         -0.4650     1.2800    -0.0850 ca         1 0LV      -0.173300
      8 CAF          0.3680     2.3840    -0.0590 ca         1 0LV      -0.057000
      9 CAD          1.7440     2.1760    -0.0310 ca         1 0LV      -0.154000
     10 CAE          2.2690     0.8870    -0.0310 ca         1 0LV      -0.052000
     11 CAJ          1.4450    -0.2370    -0.0540 ca         1 0LV      -0.112300
     12 CAG          1.9540    -1.6510    -0.0480 c3         1 0LV       0.219900
     13 OAC          3.3540    -1.6570     0.0560 oh         1 0LV      -0.662000
     14 H1          -2.3330     1.4390    -1.1390 hc         1 0LV       0.061700
     15 H2          -2.4790     1.7510     0.5850 hc         1 0LV       0.061700
     16 H3          -2.8390    -0.8530    -1.8910 hc         1 0LV       0.046700
     17 H4          -3.2110    -2.0900    -0.6770 hc         1 0LV       0.046700
     18 H5          -4.1300    -0.5870    -0.7200 hc         1 0LV       0.046700
     19 H6          -3.5220    -0.2060     1.7680 hc         1 0LV       0.046700
     20 H7          -2.5810    -1.6990     1.7620 hc         1 0LV       0.046700
     21 H8          -1.8240    -0.1710     2.2410 hc         1 0LV       0.046700
     22 H9          -0.0380     3.3880    -0.0600 ha         1 0LV       0.113000
     23 H10          2.4180     3.0220    -0.0070 ha         1 0LV       0.114000
     24 H11          3.3430     0.7590    -0.0060 ha         1 0LV       0.131000
     25 H12          1.4850    -2.1930     0.7850 h1         1 0LV       0.030700
     26 H13          1.6170    -2.1550    -0.9650 h1         1 0LV       0.030700
     27 H14          3.6450    -2.5730     0.0620 ho         1 0LV       0.445000
@<TRIPOS>BOND
     1     1     2 1   
     2     1     7 1   
     3     1    14 1   
     4     1    15 1   
     5     2     3 1   
     6     2     4 1   
     7     2     5 1   
     8     3    16 1   
     9     3    17 1   
    10     3    18 1   
    11     4    19 1   
    12     4    20 1   
    13     4    21 1   
    14     5     6 1   
    15     6     7 ar  
    16     6    11 ar  
    17     7     8 ar  
    18     8     9 ar  
    19     8    22 1   
    20     9    10 ar  
    21     9    23 1   
    22    10    11 ar  
    23    10    24 1   
    24    11    12 1   
    25    12    13 1   
    26    12    25 1   
    27    12    26 1   
    28    13    27 1   
@<TRIPOS>SUBSTRUCTURE
     1 0LV         1 TEMP              0 ****  ****    0 ROOT
