@<TRIPOS>MOLECULE
0LW
   46    49     1     0     0
SMALL
No Charge or Current Charge


@<TRIPOS>ATOM
      1 C1          -2.3260    -1.0180    -0.5330 ca         1 0LW      -0.066800
      2 C2          -0.9750    -0.3450    -0.8030 c6         1 0LW       0.036900
      3 C3          -3.1600    -0.5670     0.5140 ca         1 0LW      -0.108500
      4 C4          -2.7330    -2.1160    -1.3180 ca         1 0LW      -0.088000
      5 C5          -1.0710     1.1840    -0.7130 ca         1 0LW      -0.066800
      6 C6           0.1100    -0.9380     0.1540 c3         1 0LW      -0.109400
      7 S7          -2.6880     0.8270     1.5360 ss         1 0LW       0.053000
      8 C8          -4.3830    -1.2150     0.7680 ca         1 0LW      -0.085000
      9 C9          -3.9580    -2.7570    -1.0640 ca         1 0LW      -0.104000
     10 C10         -1.7950     1.8030     0.3280 ca         1 0LW      -0.108500
     11 C11         -0.4120     1.9870    -1.6680 ca         1 0LW      -0.088000
     12 C12          1.5580    -0.4150    -0.0380 c3         1 0LW       0.170300
     13 C13         -4.7830    -2.3070    -0.0200 ca         1 0LW      -0.106500
     14 C14         -1.8380     3.2060     0.4200 ca         1 0LW      -0.085000
     15 C15         -0.4600     3.3870    -1.5750 ca         1 0LW      -0.104000
     16 C16          2.6070    -1.3150     0.6960 c3         1 0LW       0.140800
     17 O17          1.6260     0.9350     0.4560 oh         1 0LW      -0.651000
     18 C18         -1.1700     3.9970    -0.5280 ca         1 0LW      -0.106500
     19 N19          4.0170    -1.1850     0.2370 n3         1 0LW      -0.711600
     20 C20          4.9690    -2.1040     0.8930 c5         1 0LW       0.157800
     21 C21          4.6530     0.1370     0.4340 c5         1 0LW       0.157800
     22 C22          6.3000    -1.6770     0.2270 c5         1 0LW      -0.079900
     23 C23          6.1310    -0.1370     0.0350 c5         1 0LW      -0.079900
     24 H1          -0.6580    -0.6100    -1.8210 hc         1 0LW       0.065700
     25 H2          -2.0990    -2.4790    -2.1230 ha         1 0LW       0.116500
     26 H3          -0.1830    -0.7860     1.2000 hc         1 0LW       0.056700
     27 H4           0.1210    -2.0250     0.0090 hc         1 0LW       0.056700
     28 H5          -5.0260    -0.8680     1.5750 ha         1 0LW       0.123500
     29 H6          -4.2650    -3.6040    -1.6740 ha         1 0LW       0.116000
     30 H7           0.1460     1.5260    -2.4800 ha         1 0LW       0.116500
     31 H8           1.7890    -0.4470    -1.1120 h1         1 0LW       0.080700
     32 H9          -5.7300    -2.8030     0.1780 ha         1 0LW       0.115000
     33 H10         -2.3960     3.6820     1.2240 ha         1 0LW       0.123500
     34 H11          0.0540     4.0000    -2.3120 ha         1 0LW       0.116000
     35 H12          2.5420    -1.1190     1.7750 h1         1 0LW       0.031200
     36 H13          2.3040    -2.3600     0.5530 h1         1 0LW       0.031200
     37 H14          0.8130     1.3850     0.1390 ho         1 0LW       0.439000
     38 H15         -1.2070     5.0820    -0.4550 ha         1 0LW       0.115000
     39 H17          4.9960    -1.9460     1.9810 h1         1 0LW       0.036950
     40 H18          4.7340    -3.1610     0.7050 h1         1 0LW       0.036950
     41 H19          4.2060     0.9210    -0.1920 h1         1 0LW       0.036950
     42 H20          4.5840     0.4580     1.4830 h1         1 0LW       0.036950
     43 H21          7.1680    -1.9320     0.8440 hc         1 0LW       0.045700
     44 H22          6.4300    -2.1780    -0.7390 hc         1 0LW       0.045700
     45 H23          6.3200     0.1490    -1.0060 hc         1 0LW       0.045700
     46 H24          6.8240     0.4390     0.6580 hc         1 0LW       0.045700
@<TRIPOS>BOND
     1     1     2 1   
     2     1     3 ar  
     3     1     4 ar  
     4     2     5 1   
     5     2     6 1   
     6     2    24 1   
     7     3     7 1   
     8     3     8 ar  
     9     4     9 ar  
    10     4    25 1   
    11     5    10 ar  
    12     5    11 ar  
    13     6    12 1   
    14     6    26 1   
    15     6    27 1   
    16     7    10 1   
    17     8    13 ar  
    18     8    28 1   
    19     9    13 ar  
    20     9    29 1   
    21    10    14 ar  
    22    11    15 ar  
    23    11    30 1   
    24    12    16 1   
    25    12    17 1   
    26    12    31 1   
    27    13    32 1   
    28    14    18 ar  
    29    14    33 1   
    30    15    18 ar  
    31    15    34 1   
    32    16    19 1   
    33    16    35 1   
    34    16    36 1   
    35    17    37 1   
    36    18    38 1   
    37    19    20 1   
    38    19    21 1   
    39    20    22 1   
    40    20    39 1   
    41    20    40 1   
    42    21    23 1   
    43    21    41 1   
    44    21    42 1   
    45    22    23 1   
    46    22    43 1   
    47    22    44 1   
    48    23    45 1   
    49    23    46 1   
@<TRIPOS>SUBSTRUCTURE
     1 0LW         1 TEMP              0 ****  ****    0 ROOT
