@<TRIPOS>MOLECULE
0LW
   46    49     1     0     0
SMALL
abcg2


@<TRIPOS>ATOM
      1 C1          -2.2230    -0.9560    -0.5610 ca         1 0LW      -0.066800
      2 C2          -0.9270    -0.2400    -0.8510 c6         1 0LW       0.036900
      3 C3          -2.9960    -0.5990     0.5430 ca         1 0LW      -0.108500
      4 C4          -2.6490    -2.0190    -1.3490 ca         1 0LW      -0.088000
      5 C5          -1.1200     1.2530    -0.7530 ca         1 0LW      -0.066800
      6 C6           0.1690    -0.7870     0.0870 c3         1 0LW      -0.109400
      7 S7          -2.5210     0.7660     1.5580 ss         1 0LW       0.053000
      8 C8          -4.1490    -1.3070     0.8690 ca         1 0LW      -0.085000
      9 C9          -3.7950    -2.7350    -1.0310 ca         1 0LW      -0.104000
     10 C10         -1.8000     1.8080     0.3290 ca         1 0LW      -0.108500
     11 C11         -0.6420     2.1120    -1.7380 ca         1 0LW      -0.088000
     12 C12          1.6040    -0.4620    -0.3250 c3         1 0LW       0.170300
     13 C13         -4.5400    -2.3830     0.0870 ca         1 0LW      -0.106500
     14 C14         -1.9430     3.1880     0.4580 ca         1 0LW      -0.085000
     15 C15         -0.7830     3.4850    -1.6240 ca         1 0LW      -0.104000
     16 C16          2.5770    -1.1880     0.6040 c3         1 0LW       0.140800
     17 O17          1.8460     0.9250    -0.4010 oh         1 0LW      -0.651000
     18 C18         -1.4200     4.0260    -0.5130 ca         1 0LW      -0.106500
     19 N19          3.9560    -1.1610     0.1720 n3         1 0LW      -0.711600
     20 C20          4.7650    -2.1760     0.8310 c5         1 0LW       0.157800
     21 C21          4.6710     0.0830     0.4170 c5         1 0LW       0.157800
     22 C22          6.1930    -1.8170     0.4350 c5         1 0LW      -0.079900
     23 C23          6.1490    -0.2870     0.2470 c5         1 0LW      -0.079900
     24 H1          -0.6310    -0.4790    -1.8770 hc         1 0LW       0.065700
     25 H2          -2.0640    -2.2990    -2.2180 ha         1 0LW       0.116500
     26 H3          -0.0110    -0.4510     1.1140 hc         1 0LW       0.056700
     27 H4           0.0690    -1.8750     0.1050 hc         1 0LW       0.056700
     28 H5          -4.7460    -1.0100     1.7220 ha         1 0LW       0.123500
     29 H6          -4.1050    -3.5640    -1.6520 ha         1 0LW       0.116000
     30 H7          -0.1400     1.6920    -2.6000 ha         1 0LW       0.116500
     31 H8           1.7690    -0.8410    -1.3390 h1         1 0LW       0.080700
     32 H9          -5.4360    -2.9320     0.3430 ha         1 0LW       0.115000
     33 H10         -2.4770     3.6020     1.3040 ha         1 0LW       0.123500
     34 H11         -0.3940     4.1340    -2.3980 ha         1 0LW       0.116000
     35 H12          2.4640    -0.7960     1.6330 h1         1 0LW       0.031200
     36 H13          2.2660    -2.2360     0.6430 h1         1 0LW       0.031200
     37 H14          1.6120     1.3250     0.4430 ho         1 0LW       0.439000
     38 H15         -1.5330     5.0980    -0.4130 ha         1 0LW       0.115000
     39 H17          4.6540    -2.1340     1.9280 h1         1 0LW       0.036950
     40 H18          4.4680    -3.1780     0.5130 h1         1 0LW       0.036950
     41 H19          4.3540     0.8710    -0.2630 h1         1 0LW       0.036950
     42 H20          4.4860     0.4480     1.4420 h1         1 0LW       0.036950
     43 H21          6.9120    -2.1310     1.1910 hc         1 0LW       0.045700
     44 H22          6.4660    -2.3120    -0.4980 hc         1 0LW       0.045700
     45 H23          6.5120    -0.0070    -0.7430 hc         1 0LW       0.045700
     46 H24          6.7690     0.2380     0.9730 hc         1 0LW       0.045700
@<TRIPOS>BOND
     1     1     2 1   
     2     1     3 ar  
     3     1     4 ar  
     4     2     5 1   
     5     2     6 1   
     6     2    24 1   
     7     3     7 1   
     8     3     8 ar  
     9     4     9 ar  
    10     4    25 1   
    11     5    10 ar  
    12     5    11 ar  
    13     6    12 1   
    14     6    26 1   
    15     6    27 1   
    16     7    10 1   
    17     8    13 ar  
    18     8    28 1   
    19     9    13 ar  
    20     9    29 1   
    21    10    14 ar  
    22    11    15 ar  
    23    11    30 1   
    24    12    16 1   
    25    12    17 1   
    26    12    31 1   
    27    13    32 1   
    28    14    18 ar  
    29    14    33 1   
    30    15    18 ar  
    31    15    34 1   
    32    16    19 1   
    33    16    35 1   
    34    16    36 1   
    35    17    37 1   
    36    18    38 1   
    37    19    20 1   
    38    19    21 1   
    39    20    22 1   
    40    20    39 1   
    41    20    40 1   
    42    21    23 1   
    43    21    41 1   
    44    21    42 1   
    45    22    23 1   
    46    22    43 1   
    47    22    44 1   
    48    23    45 1   
    49    23    46 1   
@<TRIPOS>SUBSTRUCTURE
     1 0LW         1 TEMP              0 ****  ****    0 ROOT
