@<TRIPOS>MOLECULE
0LX
   57    58     1     0     0
SMALL
No Charge or Current Charge


@<TRIPOS>ATOM
      1 O01          1.8130    -2.0480     1.7680 o          1 0LX      -0.577100
      2 C02          1.7980    -2.0520     0.5430 c          1 0LX       0.602100
      3 N03          1.8890    -3.2240    -0.1990 ns         1 0LX      -0.391400
      4 O04          2.2820    -4.4720     0.4230 oh         1 0LX      -0.426100
      5 C05          1.6740    -0.7570    -0.2900 c3         1 0LX      -0.134700
      6 C06          0.3370    -0.0150    -0.0150 c3         1 0LX      -0.067400
      7 C07         -0.9240    -0.8520    -0.3350 c3         1 0LX      -0.077400
      8 C08         -2.2390    -0.0750    -0.1020 c3         1 0LX      -0.078400
      9 C09         -3.4940    -0.9110    -0.4210 c3         1 0LX       0.159800
     10 N10         -4.7100    -0.1150    -0.1840 n7         1 0LX      -0.862400
     11 C11         -5.9770    -0.8100    -0.4650 c3         1 0LX       0.208100
     12 C12         -7.1580     0.0950    -0.1450 ca         1 0LX      -0.107300
     13 C13         -7.5900     1.0550    -1.0840 ca         1 0LX      -0.072500
     14 C14         -8.6830     1.8890    -0.7910 ca         1 0LX      -0.155000
     15 C15         -9.3470     1.7660     0.4390 ca         1 0LX       0.171000
     16 C16         -8.9240     0.8150     1.3800 ca         1 0LX      -0.155000
     17 C17         -7.8310    -0.0210     1.0890 ca         1 0LX      -0.072500
     18 F18        -10.3970     2.5680     0.7190 f          1 0LX      -0.181000
     19 C19          2.9040     0.1720    -0.0730 c3         1 0LX      -0.061400
     20 C20          4.2790    -0.5100    -0.2860 c3         1 0LX       0.213600
     21 O21          4.2970    -1.0580    -1.6190 os         1 0LX      -0.464000
     22 C22          5.4160    -1.9120    -1.9180 c3         1 0LX       0.140900
     23 C23          5.4400     0.4730    -0.1170 ca         1 0LX      -0.142300
     24 C24          6.3260     0.3350     0.9720 ca         1 0LX      -0.068500
     25 C25          7.3940     1.2350     1.1340 ca         1 0LX      -0.155500
     26 C26          7.5820     2.2730     0.2100 ca         1 0LX       0.176000
     27 C27          6.7080     2.4190    -0.8770 ca         1 0LX      -0.155500
     28 C28          5.6380     1.5210    -1.0420 ca         1 0LX      -0.068500
     29 F29          8.6090     3.1360     0.3670 f          1 0LX      -0.179000
     30 H1           2.0370    -3.1590    -1.2050 hn         1 0LX       0.340500
     31 H2           1.6050    -5.1140     0.1050 ho         1 0LX       0.443000
     32 H3           1.6680    -1.0400    -1.3500 hc         1 0LX       0.065700
     33 H4           0.3040     0.2980     1.0360 hc         1 0LX       0.053700
     34 H5           0.3100     0.9030    -0.6160 hc         1 0LX       0.053700
     35 H6          -0.8830    -1.1810    -1.3810 hc         1 0LX       0.040200
     36 H7          -0.9330    -1.7560     0.2860 hc         1 0LX       0.040200
     37 H8          -2.2800     0.2550     0.9440 hc         1 0LX       0.048200
     38 H9          -2.2400     0.8270    -0.7260 hc         1 0LX       0.048200
     39 H10         -3.4500    -1.2370    -1.4690 h1         1 0LX       0.028200
     40 H11         -3.4970    -1.8110     0.2110 h1         1 0LX       0.028200
     41 H12         -4.7230     0.1670     0.8030 hn         1 0LX       0.411000
     42 H14         -6.0270    -1.1060    -1.5220 h1         1 0LX       0.036700
     43 H15         -6.0530    -1.7280     0.1340 h1         1 0LX       0.036700
     44 H16         -7.0740     1.1530    -2.0370 ha         1 0LX       0.122500
     45 H17         -9.0150     2.6300    -1.5140 ha         1 0LX       0.131500
     46 H18         -9.4430     0.7260     2.3310 ha         1 0LX       0.131500
     47 H19         -7.5060    -0.7580     1.8220 ha         1 0LX       0.122500
     48 H20          2.8220     1.0340    -0.7460 hc         1 0LX       0.064700
     49 H21          2.8760     0.5730     0.9480 hc         1 0LX       0.064700
     50 H22          4.3850    -1.3170     0.4520 h1         1 0LX       0.050700
     51 H23          5.4580    -2.7590    -1.2210 h1         1 0LX       0.034367
     52 H24          5.3270    -2.3130    -2.9360 h1         1 0LX       0.034367
     53 H25          6.3640    -1.3610    -1.8540 h1         1 0LX       0.034367
     54 H26          6.1870    -0.4680     1.6940 ha         1 0LX       0.124000
     55 H27          8.0770     1.1280     1.9740 ha         1 0LX       0.133000
     56 H28          6.8600     3.2250    -1.5910 ha         1 0LX       0.133000
     57 H29          4.9660     1.6360    -1.8900 ha         1 0LX       0.124000
@<TRIPOS>BOND
     1     1     2 2   
     2     2     3 1   
     3     2     5 1   
     4     3     4 1   
     5     3    30 1   
     6     4    31 1   
     7     5     6 1   
     8     5    19 1   
     9     5    32 1   
    10     6     7 1   
    11     6    33 1   
    12     6    34 1   
    13     7     8 1   
    14     7    35 1   
    15     7    36 1   
    16     8     9 1   
    17     8    37 1   
    18     8    38 1   
    19     9    10 1   
    20     9    39 1   
    21     9    40 1   
    22    10    11 1   
    23    10    41 1   
    24    11    12 1   
    25    11    42 1   
    26    11    43 1   
    27    12    13 ar  
    28    12    17 ar  
    29    13    14 ar  
    30    13    44 1   
    31    14    15 ar  
    32    14    45 1   
    33    15    16 ar  
    34    15    18 1   
    35    16    17 ar  
    36    16    46 1   
    37    17    47 1   
    38    19    20 1   
    39    19    48 1   
    40    19    49 1   
    41    20    21 1   
    42    20    23 1   
    43    20    50 1   
    44    21    22 1   
    45    22    51 1   
    46    22    52 1   
    47    22    53 1   
    48    23    24 ar  
    49    23    28 ar  
    50    24    25 ar  
    51    24    54 1   
    52    25    26 ar  
    53    25    55 1   
    54    26    27 ar  
    55    26    29 1   
    56    27    28 ar  
    57    27    56 1   
    58    28    57 1   
@<TRIPOS>SUBSTRUCTURE
     1 0LX         1 TEMP              0 ****  ****    0 ROOT
