@<TRIPOS>MOLECULE
0LX
   57    58     1     0     0
SMALL
bcc


@<TRIPOS>ATOM
      1 O01          1.7580    -1.8310     1.7100 o          1 0LX      -0.577100
      2 C02          1.7810    -1.9230     0.4950 c          1 0LX       0.669100
      3 N03          1.8800    -3.0960    -0.1580 ns         1 0LX      -0.458400
      4 O04          2.1290    -4.2470     0.5270 oh         1 0LX      -0.387100
      5 C05          1.6830    -0.7230    -0.4260 c3         1 0LX      -0.134700
      6 C06          0.3940     0.0520    -0.1510 c3         1 0LX      -0.067400
      7 C07         -0.8720    -0.7690    -0.3630 c3         1 0LX      -0.077400
      8 C08         -2.1420     0.0480    -0.1670 c3         1 0LX      -0.078400
      9 C09         -3.3980    -0.7910    -0.3310 c3         1 0LX       0.159800
     10 N10         -4.5990    -0.0030    -0.1220 n7         1 0LX      -0.807200
     11 C11         -5.8100    -0.7880    -0.2520 c3         1 0LX       0.208100
     12 C12         -7.0420     0.0430    -0.0140 ca         1 0LX      -0.107300
     13 C13         -7.1790     1.3010    -0.5970 ca         1 0LX      -0.090500
     14 C14         -8.3210     2.0630    -0.4000 ca         1 0LX      -0.173000
     15 C15         -9.3300     1.5510     0.3940 ca         1 0LX       0.135900
     16 C16         -9.2310     0.3120     0.9930 ca         1 0LX      -0.173000
     17 C17         -8.0770    -0.4330     0.7840 ca         1 0LX      -0.090500
     18 F18        -10.4410     2.2840     0.5900 f          1 0LX      -0.145900
     19 C19          2.9120     0.1700    -0.2310 c3         1 0LX      -0.061400
     20 C20          4.2450    -0.5440    -0.4380 c3         1 0LX       0.190400
     21 O21          4.2450    -1.0920    -1.7320 os         1 0LX      -0.417600
     22 C22          5.2840    -2.0140    -1.9610 c3         1 0LX       0.117700
     23 C23          5.3950     0.4110    -0.2090 ca         1 0LX      -0.142300
     24 C24          6.0510     0.4370     1.0160 ca         1 0LX      -0.086500
     25 C25          7.0710     1.3450     1.2690 ca         1 0LX      -0.173500
     26 C26          7.4310     2.2220     0.2660 ca         1 0LX       0.140900
     27 C27          6.8100     2.2200    -0.9690 ca         1 0LX      -0.173500
     28 C28          5.7880     1.3110    -1.1980 ca         1 0LX      -0.086500
     29 F29          8.4210     3.1020     0.4940 f          1 0LX      -0.143900
     30 H1           2.0390    -3.1490    -1.1530 hn         1 0LX       0.340500
     31 H2           1.2720    -4.6740     0.6550 ho         1 0LX       0.404000
     32 H3           1.6600    -1.0580    -1.4670 hc         1 0LX       0.065700
     33 H4           0.4130     0.4460     0.8690 hc         1 0LX       0.053700
     34 H5           0.3770     0.9200    -0.8170 hc         1 0LX       0.053700
     35 H6          -0.8650    -1.1980    -1.3710 hc         1 0LX       0.040200
     36 H7          -0.8870    -1.6170     0.3300 hc         1 0LX       0.040200
     37 H8          -2.1330     0.4970     0.8330 hc         1 0LX       0.048200
     38 H9          -2.1660     0.8780    -0.8800 hc         1 0LX       0.048200
     39 H10         -3.4310    -1.2030    -1.3450 h1         1 0LX       0.028200
     40 H11         -3.3470    -1.6590     0.3480 h1         1 0LX       0.028200
     41 H12         -4.5700     0.3960     0.8100 hn         1 0LX       0.355800
     42 H14         -5.8380    -1.1960    -1.2680 h1         1 0LX       0.036700
     43 H15         -5.8320    -1.6600     0.4210 h1         1 0LX       0.036700
     44 H16         -6.3800     1.6960    -1.2110 ha         1 0LX       0.140500
     45 H17         -8.4240     3.0400    -0.8550 ha         1 0LX       0.149500
     46 H18        -10.0320    -0.0660     1.6160 ha         1 0LX       0.149500
     47 H19         -7.9850    -1.4030     1.2580 ha         1 0LX       0.140500
     48 H20          2.8450     1.0160    -0.9210 hc         1 0LX       0.064700
     49 H21          2.9050     0.5890     0.7780 hc         1 0LX       0.064700
     50 H22          4.3360    -1.3510     0.3070 h1         1 0LX       0.050700
     51 H23          5.2750    -2.8270    -1.2240 h1         1 0LX       0.034367
     52 H24          5.1330    -2.4430    -2.9500 h1         1 0LX       0.034367
     53 H25          6.2730    -1.5460    -1.9360 h1         1 0LX       0.034367
     54 H26          5.7660    -0.2620     1.7930 ha         1 0LX       0.142000
     55 H27          7.5780     1.3620     2.2250 ha         1 0LX       0.151000
     56 H28          7.1160     2.9160    -1.7390 ha         1 0LX       0.151000
     57 H29          5.2990     1.3050    -2.1640 ha         1 0LX       0.142000
@<TRIPOS>BOND
     1     1     2 2   
     2     2     3 1   
     3     2     5 1   
     4     3     4 1   
     5     3    30 1   
     6     4    31 1   
     7     5     6 1   
     8     5    19 1   
     9     5    32 1   
    10     6     7 1   
    11     6    33 1   
    12     6    34 1   
    13     7     8 1   
    14     7    35 1   
    15     7    36 1   
    16     8     9 1   
    17     8    37 1   
    18     8    38 1   
    19     9    10 1   
    20     9    39 1   
    21     9    40 1   
    22    10    11 1   
    23    10    41 1   
    24    11    12 1   
    25    11    42 1   
    26    11    43 1   
    27    12    13 ar  
    28    12    17 ar  
    29    13    14 ar  
    30    13    44 1   
    31    14    15 ar  
    32    14    45 1   
    33    15    16 ar  
    34    15    18 1   
    35    16    17 ar  
    36    16    46 1   
    37    17    47 1   
    38    19    20 1   
    39    19    48 1   
    40    19    49 1   
    41    20    21 1   
    42    20    23 1   
    43    20    50 1   
    44    21    22 1   
    45    22    51 1   
    46    22    52 1   
    47    22    53 1   
    48    23    24 ar  
    49    23    28 ar  
    50    24    25 ar  
    51    24    54 1   
    52    25    26 ar  
    53    25    55 1   
    54    26    27 ar  
    55    26    29 1   
    56    27    28 ar  
    57    27    56 1   
    58    28    57 1   
@<TRIPOS>SUBSTRUCTURE
     1 0LX         1 TEMP              0 ****  ****    0 ROOT
