@<TRIPOS>MOLECULE
0LY
   47    48     1     0     0
SMALL
abcg2


@<TRIPOS>ATOM
      1 C2           5.2300    -0.2790     0.0830 ca         1 0LY      -0.044900
      2 C7           4.6340    -1.3400     0.7490 ca         1 0LY      -0.057500
      3 C6           3.2560    -1.3870     0.8490 ca         1 0LY      -0.147000
      4 C5           2.4580    -0.3860     0.2920 ca         1 0LY      -0.012000
      5 N8           1.0790    -0.5190     0.4520 ns         1 0LY      -0.118000
      6 C9           0.0900     0.2410    -0.0430 c          1 0LY       0.522100
      7 O23          0.2100     1.2260    -0.7470 o          1 0LY      -0.582100
      8 C10         -1.2940    -0.2770     0.3880 c          1 0LY       0.521100
      9 O22         -1.3990    -1.2590     1.1100 o          1 0LY      -0.608100
     10 N11         -2.2920     0.4510    -0.0930 ns         1 0LY      -0.471900
     11 C12         -3.6960     0.1750     0.1580 c6         1 0LY       0.115700
     12 C17         -4.4870     1.4700     0.0330 c6         1 0LY      -0.121400
     13 C16         -5.9930     1.2520     0.2550 c6         1 0LY       0.200700
     14 C21         -6.7370     2.5060    -0.2040 c3         1 0LY      -0.086350
     15 C20         -6.2900     1.0580     1.7460 c3         1 0LY      -0.086350
     16 N15         -6.5130     0.1400    -0.5480 n7         1 0LY      -0.865400
     17 C14         -5.7470    -1.1100    -0.6260 c6         1 0LY       0.200700
     18 C19         -5.9810    -1.9850     0.6080 c3         1 0LY      -0.086350
     19 C18         -6.2810    -1.8710    -1.8390 c3         1 0LY      -0.086350
     20 C13         -4.2440    -0.8550    -0.8260 c6         1 0LY      -0.121400
     21 C4           3.0710     0.6760    -0.3740 ca         1 0LY      -0.147000
     22 C3           4.4540     0.7240    -0.4750 ca         1 0LY      -0.057500
     23 BR           7.1100    -0.2030    -0.0620 br         1 0LY      -0.095100
     24 H1           5.2250    -2.1320     1.1890 ha         1 0LY       0.131000
     25 H2           2.7950    -2.2200     1.3660 ha         1 0LY       0.134500
     26 H3           0.7680    -1.3080     1.0060 hn         1 0LY       0.186000
     27 H4          -2.0570     1.2220    -0.7010 hn         1 0LY       0.340500
     28 H5          -3.7670    -0.2090     1.1790 h1         1 0LY       0.081700
     29 H6          -4.1070     2.2180     0.7360 hc         1 0LY       0.051200
     30 H7          -4.3300     1.8720    -0.9760 hc         1 0LY       0.051200
     31 H8          -6.3750     3.3870     0.3270 hc         1 0LY       0.040033
     32 H9          -6.5940     2.6790    -1.2740 hc         1 0LY       0.040033
     33 H10         -7.8080     2.4130    -0.0160 hc         1 0LY       0.040033
     34 H11         -7.3350     0.7850     1.8910 hc         1 0LY       0.040033
     35 H12         -5.6790     0.2890     2.2170 hc         1 0LY       0.040033
     36 H13         -6.1020     1.9870     2.2870 hc         1 0LY       0.040033
     37 H14         -6.6180     0.4850    -1.4960 hn         1 0LY       0.410000
     38 H16         -5.5650    -2.9810     0.4440 hc         1 0LY       0.040033
     39 H17         -5.5200    -1.5950     1.5130 hc         1 0LY       0.040033
     40 H18         -7.0490    -2.0920     0.8000 hc         1 0LY       0.040033
     41 H19         -6.1630    -1.2890    -2.7560 hc         1 0LY       0.040033
     42 H20         -5.7450    -2.8120    -1.9730 hc         1 0LY       0.040033
     43 H21         -7.3410    -2.1020    -1.7180 hc         1 0LY       0.040033
     44 H22         -4.0740    -0.4790    -1.8420 hc         1 0LY       0.051200
     45 H23         -3.6870    -1.7920    -0.7400 hc         1 0LY       0.051200
     46 H24          2.4940     1.4710    -0.8150 ha         1 0LY       0.134500
     47 H25          4.9100     1.5570    -0.9930 ha         1 0LY       0.131000
@<TRIPOS>BOND
     1     1     2 ar  
     2     1    22 ar  
     3     1    23 1   
     4     2     3 ar  
     5     2    24 1   
     6     3     4 ar  
     7     3    25 1   
     8     4     5 1   
     9     4    21 ar  
    10     5     6 1   
    11     5    26 1   
    12     6     7 2   
    13     6     8 1   
    14     8     9 2   
    15     8    10 1   
    16    10    11 1   
    17    10    27 1   
    18    11    12 1   
    19    11    20 1   
    20    11    28 1   
    21    12    13 1   
    22    12    29 1   
    23    12    30 1   
    24    13    14 1   
    25    13    15 1   
    26    13    16 1   
    27    14    31 1   
    28    14    32 1   
    29    14    33 1   
    30    15    34 1   
    31    15    35 1   
    32    15    36 1   
    33    16    17 1   
    34    16    37 1   
    35    17    18 1   
    36    17    19 1   
    37    17    20 1   
    38    18    38 1   
    39    18    39 1   
    40    18    40 1   
    41    19    41 1   
    42    19    42 1   
    43    19    43 1   
    44    20    44 1   
    45    20    45 1   
    46    21    22 ar  
    47    21    46 1   
    48    22    47 1   
@<TRIPOS>SUBSTRUCTURE
     1 0LY         1 TEMP              0 ****  ****    0 ROOT
