@<TRIPOS>MOLECULE
0LY
   47    48     1     0     0
SMALL
No Charge or Current Charge


@<TRIPOS>ATOM
      1 C2           5.4480    -0.3580     0.0960 ca         1 0LY      -0.044900
      2 C7           4.8100    -1.3850     0.8070 ca         1 0LY      -0.057500
      3 C6           3.4070    -1.4070     0.8970 ca         1 0LY      -0.147000
      4 C5           2.6290    -0.4070     0.2800 ca         1 0LY      -0.012000
      5 N8           1.2150    -0.4940     0.4140 ns         1 0LY      -0.118000
      6 C9           0.1760     0.3040    -0.0540 c          1 0LY       0.522100
      7 O23          0.3200     1.3250    -0.7310 o          1 0LY      -0.582100
      8 C10         -1.2670    -0.2380     0.3790 c          1 0LY       0.521100
      9 O22         -1.4300    -1.2510     1.0580 o          1 0LY      -0.608100
     10 N11         -2.3330     0.5250    -0.0700 ns         1 0LY      -0.471900
     11 C12         -3.7520     0.2380     0.1690 c6         1 0LY       0.115700
     12 C17         -4.5900     1.5240     0.0240 c6         1 0LY      -0.121400
     13 C16         -6.1040     1.2670     0.2670 c6         1 0LY       0.200700
     14 C21         -6.9180     2.5110    -0.1910 c3         1 0LY      -0.086350
     15 C20         -6.4340     1.0610     1.7790 c3         1 0LY      -0.086350
     16 N15         -6.6050     0.1260    -0.5480 n7         1 0LY      -0.865400
     17 C14         -5.7840    -1.1140    -0.6340 c6         1 0LY       0.200700
     18 C19         -6.0190    -2.0270     0.6110 c3         1 0LY      -0.086350
     19 C18         -6.3240    -1.9060    -1.8620 c3         1 0LY      -0.086350
     20 C13         -4.2800    -0.7920    -0.8520 c6         1 0LY      -0.121400
     21 C4           3.2840     0.6230    -0.4340 ca         1 0LY      -0.147000
     22 C3           4.6880     0.6450    -0.5250 ca         1 0LY      -0.057500
     23 Br           7.3570    -0.3260    -0.0290 br         1 0LY      -0.095100
     24 H1           5.3980    -2.1630     1.2890 ha         1 0LY       0.131000
     25 H2           2.9230    -2.2090     1.4520 ha         1 0LY       0.134500
     26 H3           0.9030    -1.2920     0.9540 hn         1 0LY       0.186000
     27 H4          -2.0910     1.3430    -0.6220 hn         1 0LY       0.340500
     28 H5          -3.8630    -0.1590     1.1870 h1         1 0LY       0.081700
     29 H6          -4.2270     2.2860     0.7270 hc         1 0LY       0.051200
     30 H7          -4.4420     1.9410    -0.9820 hc         1 0LY       0.051200
     31 H8          -6.6110     3.4130     0.3530 hc         1 0LY       0.040033
     32 H9          -6.7780     2.7130    -1.2600 hc         1 0LY       0.040033
     33 H10         -7.9930     2.3740    -0.0200 hc         1 0LY       0.040033
     34 H11         -7.4690     0.7260     1.9210 hc         1 0LY       0.040033
     35 H12         -5.7780     0.3360     2.2660 hc         1 0LY       0.040033
     36 H13         -6.3160     1.9970     2.3380 hc         1 0LY       0.040033
     37 H14         -6.7090     0.4750    -1.5050 hn         1 0LY       0.410000
     38 H16         -5.6400    -3.0400     0.4320 hc         1 0LY       0.040033
     39 H17         -5.5070    -1.6690     1.5070 hc         1 0LY       0.040033
     40 H18         -7.0860    -2.1150     0.8470 hc         1 0LY       0.040033
     41 H19         -6.2350    -1.3230    -2.7860 hc         1 0LY       0.040033
     42 H20         -5.7700    -2.8420    -2.0140 hc         1 0LY       0.040033
     43 H21         -7.3830    -2.1670    -1.7390 hc         1 0LY       0.040033
     44 H22         -4.1250    -0.4040    -1.8680 hc         1 0LY       0.051200
     45 H23         -3.6910    -1.7180    -0.7870 hc         1 0LY       0.051200
     46 H24          2.7280     1.4140    -0.9260 ha         1 0LY       0.134500
     47 H25          5.1840     1.4410    -1.0760 ha         1 0LY       0.131000
@<TRIPOS>BOND
     1     1     2 ar  
     2     1    22 ar  
     3     1    23 1   
     4     2     3 ar  
     5     2    24 1   
     6     3     4 ar  
     7     3    25 1   
     8     4     5 1   
     9     4    21 ar  
    10     5     6 1   
    11     5    26 1   
    12     6     7 2   
    13     6     8 1   
    14     8     9 2   
    15     8    10 1   
    16    10    11 1   
    17    10    27 1   
    18    11    12 1   
    19    11    20 1   
    20    11    28 1   
    21    12    13 1   
    22    12    29 1   
    23    12    30 1   
    24    13    14 1   
    25    13    15 1   
    26    13    16 1   
    27    14    31 1   
    28    14    32 1   
    29    14    33 1   
    30    15    34 1   
    31    15    35 1   
    32    15    36 1   
    33    16    17 1   
    34    16    37 1   
    35    17    18 1   
    36    17    19 1   
    37    17    20 1   
    38    18    38 1   
    39    18    39 1   
    40    18    40 1   
    41    19    41 1   
    42    19    42 1   
    43    19    43 1   
    44    20    44 1   
    45    20    45 1   
    46    21    22 ar  
    47    21    46 1   
    48    22    47 1   
@<TRIPOS>SUBSTRUCTURE
     1 0LY         1 TEMP              0 ****  ****    0 ROOT
