@<TRIPOS>MOLECULE
0LZ
   42    44     1     0     0
SMALL
No Charge or Current Charge


@<TRIPOS>ATOM
      1 N01          1.3650    -0.2380     0.0750 ns         1 0LZ      -0.465900
      2 C02          0.2190    -1.0130     0.0870 c          1 0LZ       0.521100
      3 C03         -1.1520    -0.1870     0.0480 c          1 0LZ       0.523100
      4 N04         -2.2770    -1.0050     0.0650 ns         1 0LZ      -0.121000
      5 C05         -3.6700    -0.7190     0.0430 ca         1 0LZ       0.008000
      6 O06         -1.1780     1.0450     0.0070 o          1 0LZ      -0.570100
      7 O07          0.2660    -2.2420     0.1270 o          1 0LZ      -0.615100
      8 C08         -4.5610    -1.8090     0.0700 ca         1 0LZ      -0.172000
      9 C09         -5.9530    -1.6050     0.0500 ca         1 0LZ      -0.049000
     10 C10         -6.4700    -0.3000     0.0040 ca         1 0LZ       0.038000
     11 C11         -5.5880     0.7950    -0.0230 ca         1 0LZ       0.208000
     12 C12         -4.1980     0.5910    -0.0040 ca         1 0LZ      -0.176000
     13 Cl1         -8.2170    -0.0570    -0.0200 cl         1 0LZ      -0.168000
     14 F14         -6.0700     2.0580    -0.0680 f          1 0LZ      -0.158000
     15 C15          2.7380    -0.7560     0.0970 c3         1 0LZ       0.102000
     16 C16          3.7720     0.2890    -0.4340 c6         1 0LZ       0.190800
     17 N17          3.4930     1.6090     0.1950 n7         1 0LZ      -0.857400
     18 C18          4.4680     2.6370    -0.2170 c6         1 0LZ       0.153800
     19 C19          5.8660     2.2820     0.3260 c6         1 0LZ      -0.073100
     20 C20          6.2330     0.8090     0.1220 ca         1 0LZ      -0.071300
     21 C21          5.2420    -0.1470    -0.2210 ca         1 0LZ      -0.113300
     22 C22          7.5710     0.4070     0.2970 ca         1 0LZ      -0.108000
     23 C23          7.9400    -0.9350     0.1190 ca         1 0LZ      -0.102000
     24 C24          6.9710    -1.8830    -0.2410 ca         1 0LZ      -0.109000
     25 C25          5.6320    -1.4920    -0.4150 ca         1 0LZ      -0.100000
     26 H1           1.2440     0.7720     0.0420 hn         1 0LZ       0.365500
     27 H2          -2.0620    -1.9940     0.0990 hn         1 0LZ       0.187000
     28 H3          -4.1760    -2.8260     0.1060 ha         1 0LZ       0.125000
     29 H4          -6.6300    -2.4560     0.0720 ha         1 0LZ       0.133000
     30 H5          -3.5560     1.4650    -0.0260 ha         1 0LZ       0.167000
     31 H7           2.9950    -1.0250     1.1290 h1         1 0LZ       0.060200
     32 H6           2.7860    -1.6610    -0.5210 h1         1 0LZ       0.060200
     33 H8           3.6090     0.3810    -1.5190 h1         1 0LZ       0.079700
     34 H9           3.5700     1.4990     1.2130 hn         1 0LZ       0.412000
     35 H11          4.4990     2.7020    -1.3160 h1         1 0LZ       0.060700
     36 H12          4.1640     3.6230     0.1650 h1         1 0LZ       0.060700
     37 H13          6.6150     2.9290    -0.1510 hc         1 0LZ       0.056200
     38 H14          5.9030     2.5100     1.4000 hc         1 0LZ       0.056200
     39 H15          8.3270     1.1390     0.5720 ha         1 0LZ       0.113000
     40 H16          8.9760    -1.2380     0.2540 ha         1 0LZ       0.116000
     41 H17          7.2570    -2.9220    -0.3900 ha         1 0LZ       0.117000
     42 H18          4.9070    -2.2460    -0.7090 ha         1 0LZ       0.114000
@<TRIPOS>BOND
     1     1     2 1   
     2     1    15 1   
     3     1    26 1   
     4     2     3 1   
     5     2     7 2   
     6     3     4 1   
     7     3     6 2   
     8     4     5 1   
     9     4    27 1   
    10     5     8 ar  
    11     5    12 ar  
    12     8     9 ar  
    13     8    28 1   
    14     9    10 ar  
    15     9    29 1   
    16    10    11 ar  
    17    10    13 1   
    18    11    12 ar  
    19    11    14 1   
    20    12    30 1   
    21    15    16 1   
    22    15    31 1   
    23    15    32 1   
    24    16    17 1   
    25    16    21 1   
    26    16    33 1   
    27    17    18 1   
    28    17    34 1   
    29    18    19 1   
    30    18    35 1   
    31    18    36 1   
    32    19    20 1   
    33    19    37 1   
    34    19    38 1   
    35    20    21 ar  
    36    20    22 ar  
    37    21    25 ar  
    38    22    23 ar  
    39    22    39 1   
    40    23    24 ar  
    41    23    40 1   
    42    24    25 ar  
    43    24    41 1   
    44    25    42 1   
@<TRIPOS>SUBSTRUCTURE
     1 0LZ         1 TEMP              0 ****  ****    0 ROOT
