@<TRIPOS>MOLECULE
0LZ
   42    44     1     0     0
SMALL
bcc


@<TRIPOS>ATOM
      1 N01          1.3360    -0.2380     0.3150 ns         1 0LZ      -0.532900
      2 C02          0.2650    -1.0160     0.3200 c          1 0LZ       0.588100
      3 C03         -1.0500    -0.2290     0.1930 c          1 0LZ       0.590100
      4 N04         -2.1160    -1.0460     0.1690 ns         1 0LZ      -0.447100
      5 C05         -3.4650    -0.7250     0.0420 ca         1 0LZ       0.100600
      6 O06         -1.0640     0.9850     0.1260 o          1 0LZ      -0.570100
      7 O07          0.2590    -2.2360     0.4040 o          1 0LZ      -0.615100
      8 C08         -4.3670    -1.7880    -0.0330 ca         1 0LZ      -0.190000
      9 C09         -5.7220    -1.5550    -0.1630 ca         1 0LZ      -0.067000
     10 C10         -6.2040    -0.2560    -0.2200 ca         1 0LZ      -0.053600
     11 C11         -5.3010     0.7890    -0.1410 ca         1 0LZ       0.172900
     12 C12         -3.9420     0.5840    -0.0110 ca         1 0LZ      -0.194000
     13 CL1         -7.8860     0.0710    -0.3860 cl         1 0LZ      -0.076400
     14 F14         -5.7560     2.0420    -0.1880 f          1 0LZ      -0.122900
     15 C15          2.6920    -0.7290     0.4070 c3         1 0LZ       0.102000
     16 C16          3.6290     0.2790    -0.2540 c6         1 0LZ       0.190800
     17 N17          3.3790     1.5840     0.3370 n7         1 0LZ      -0.802200
     18 C18          4.3160     2.5780    -0.1530 c6         1 0LZ       0.153800
     19 C19          5.7450     2.2550     0.2610 c6         1 0LZ      -0.073100
     20 C20          6.0830     0.8040     0.0290 ca         1 0LZ      -0.071300
     21 C21          5.0860    -0.1500    -0.2010 ca         1 0LZ      -0.113300
     22 C22          7.4180     0.4020     0.0460 ca         1 0LZ      -0.126000
     23 C23          7.7760    -0.9190    -0.1670 ca         1 0LZ      -0.120000
     24 C24          6.7880    -1.8640    -0.4120 ca         1 0LZ      -0.127000
     25 C25          5.4580    -1.4740    -0.4330 ca         1 0LZ      -0.118000
     26 H1           1.2190     0.7670     0.2770 hn         1 0LZ       0.365500
     27 H2          -1.8970    -2.0320     0.2380 hn         1 0LZ       0.353500
     28 H3          -4.0080    -2.8090     0.0090 ha         1 0LZ       0.143000
     29 H4          -6.4100    -2.3870    -0.2220 ha         1 0LZ       0.151000
     30 H5          -3.2870     1.4380     0.0450 ha         1 0LZ       0.185000
     31 H7           2.9800    -0.8770     1.4540 h1         1 0LZ       0.060200
     32 H6           2.7490    -1.6980    -0.0860 h1         1 0LZ       0.060200
     33 H8           3.3410     0.3500    -1.3110 h1         1 0LZ       0.079700
     34 H9           3.4770     1.5160     1.3470 hn         1 0LZ       0.356800
     35 H11          4.2340     2.6140    -1.2430 h1         1 0LZ       0.060700
     36 H12          4.0260     3.5620     0.2180 h1         1 0LZ       0.060700
     37 H13          6.4540     2.8910    -0.2750 hc         1 0LZ       0.056200
     38 H14          5.8730     2.4880     1.3240 hc         1 0LZ       0.056200
     39 H15          8.1880     1.1440     0.2230 ha         1 0LZ       0.131000
     40 H16          8.8190    -1.2080    -0.1500 ha         1 0LZ       0.134000
     41 H17          7.0500    -2.8990    -0.5890 ha         1 0LZ       0.135000
     42 H18          4.7030    -2.2230    -0.6390 ha         1 0LZ       0.132000
@<TRIPOS>BOND
     1     1     2 1   
     2     1    15 1   
     3     1    26 1   
     4     2     3 1   
     5     2     7 2   
     6     3     4 1   
     7     3     6 2   
     8     4     5 1   
     9     4    27 1   
    10     5     8 ar  
    11     5    12 ar  
    12     8     9 ar  
    13     8    28 1   
    14     9    10 ar  
    15     9    29 1   
    16    10    11 ar  
    17    10    13 1   
    18    11    12 ar  
    19    11    14 1   
    20    12    30 1   
    21    15    16 1   
    22    15    31 1   
    23    15    32 1   
    24    16    17 1   
    25    16    21 1   
    26    16    33 1   
    27    17    18 1   
    28    17    34 1   
    29    18    19 1   
    30    18    35 1   
    31    18    36 1   
    32    19    20 1   
    33    19    37 1   
    34    19    38 1   
    35    20    21 ar  
    36    20    22 ar  
    37    21    25 ar  
    38    22    23 ar  
    39    22    39 1   
    40    23    24 ar  
    41    23    40 1   
    42    24    25 ar  
    43    24    41 1   
    44    25    42 1   
@<TRIPOS>SUBSTRUCTURE
     1 0LZ         1 TEMP              0 ****  ****    0 ROOT
