@<TRIPOS>MOLECULE
0M1
   43    44     1     0     0
SMALL
bcc


@<TRIPOS>ATOM
      1 C01          5.7690    -0.1790    -0.4990 ca         1 0M1      -0.051600
      2 C02          5.0160     0.6150     0.3470 ca         1 0M1       0.172900
      3 C03          3.6730     0.3910     0.5720 ca         1 0M1      -0.193000
      4 C04          3.0560    -0.6760    -0.0800 ca         1 0M1       0.098600
      5 C05          3.8060    -1.4850    -0.9360 ca         1 0M1      -0.190000
      6 C06          5.1490    -1.2390    -1.1430 ca         1 0M1      -0.067000
      7 CL1          7.4410     0.1610    -0.7330 cl         1 0M1      -0.075400
      8 F08          5.6060     1.6370     0.9690 f          1 0M1      -0.121900
      9 N09          1.7080    -0.9930     0.0690 ns         1 0M1      -0.445100
     10 C10          0.7650    -0.3620     0.7870 c          1 0M1       0.591100
     11 C11         -0.6080    -1.0410     0.6400 c          1 0M1       0.587100
     12 N12         -1.5600    -0.4550     1.3570 ns         1 0M1      -0.528900
     13 O13         -0.7490    -2.0210    -0.0740 o          1 0M1      -0.609100
     14 O14          0.9150     0.6280     1.4770 o          1 0M1      -0.570100
     15 C15         -2.9410    -0.8770     1.3330 c3         1 0M1       0.105000
     16 C16         -3.7410    -0.1830     0.2470 c5         1 0M1       0.087100
     17 C17         -5.2060    -0.6290     0.1920 c5         1 0M1       0.121100
     18 O18         -5.9220     0.5790     0.0020 os         1 0M1      -0.426600
     19 C19         -5.0200     1.6700    -0.0520 c5         1 0M1       0.348600
     20 O20         -3.8270     1.1950     0.5280 os         1 0M1      -0.418600
     21 C21         -5.4840    -1.6300    -0.9110 c3         1 0M1       0.143800
     22 N22         -6.8770    -2.0380    -0.9040 n8         1 0M1      -0.881800
     23 C23         -4.7920     2.0930    -1.5000 c3         1 0M1      -0.108600
     24 C24         -5.5550     2.8080     0.7930 c3         1 0M1      -0.108600
     25 H1           3.1390     1.0450     1.2430 ha         1 0M1       0.186000
     26 H2           3.3370    -2.3170    -1.4460 ha         1 0M1       0.143000
     27 H3           5.7180    -1.8730    -1.8080 ha         1 0M1       0.152000
     28 H4           1.3820    -1.8030    -0.4430 hn         1 0M1       0.352500
     29 H5          -1.3190     0.3720     1.8810 hn         1 0M1       0.354500
     30 H6          -2.9850    -1.9560     1.1810 h1         1 0M1       0.073200
     31 H7          -3.3780    -0.6650     2.3090 h1         1 0M1       0.073200
     32 H8          -3.2530    -0.3540    -0.7250 h1         1 0M1       0.062700
     33 H9          -5.5140    -1.0700     1.1490 h1         1 0M1       0.077700
     34 H10         -5.1430    -1.2130    -1.8710 h1         1 0M1       0.034700
     35 H11         -4.8640    -2.5110    -0.7200 h1         1 0M1       0.034700
     36 H12         -7.4520    -1.2700    -1.2270 hn         1 0M1       0.345300
     37 H13         -7.0140    -2.7830    -1.5740 hn         1 0M1       0.345300
     38 H15         -5.7290     2.4070    -1.9590 hc         1 0M1       0.051200
     39 H16         -4.0970     2.9310    -1.5480 hc         1 0M1       0.051200
     40 H17         -4.3830     1.2770    -2.0990 hc         1 0M1       0.051200
     41 H18         -5.7280     2.4800     1.8190 hc         1 0M1       0.051200
     42 H19         -4.8520     3.6400     0.8090 hc         1 0M1       0.051200
     43 H20         -6.4960     3.1760     0.3850 hc         1 0M1       0.051200
@<TRIPOS>BOND
     1     1     2 ar  
     2     1     6 ar  
     3     1     7 1   
     4     2     3 ar  
     5     2     8 1   
     6     3     4 ar  
     7     3    25 1   
     8     4     5 ar  
     9     4     9 1   
    10     5     6 ar  
    11     5    26 1   
    12     6    27 1   
    13     9    10 1   
    14     9    28 1   
    15    10    11 1   
    16    10    14 2   
    17    11    12 1   
    18    11    13 2   
    19    12    15 1   
    20    12    29 1   
    21    15    16 1   
    22    15    30 1   
    23    15    31 1   
    24    16    17 1   
    25    16    20 1   
    26    16    32 1   
    27    17    18 1   
    28    17    21 1   
    29    17    33 1   
    30    18    19 1   
    31    19    20 1   
    32    19    23 1   
    33    19    24 1   
    34    21    22 1   
    35    21    34 1   
    36    21    35 1   
    37    22    36 1   
    38    22    37 1   
    39    23    38 1   
    40    23    39 1   
    41    23    40 1   
    42    24    41 1   
    43    24    42 1   
    44    24    43 1   
@<TRIPOS>SUBSTRUCTURE
     1 0M1         1 TEMP              0 ****  ****    0 ROOT
