@<TRIPOS>MOLECULE
0M1
   43    44     1     0     0
SMALL
No Charge or Current Charge


@<TRIPOS>ATOM
      1 C01          5.9040    -0.0660    -0.5350 ca         1 0M1       0.040000
      2 C02          5.2410     0.5380     0.5490 ca         1 0M1       0.208000
      3 C03          3.8730     0.3050     0.7670 ca         1 0M1      -0.175000
      4 C04          3.1470    -0.5410    -0.1010 ca         1 0M1       0.006000
      5 C05          3.8190    -1.1420    -1.1830 ca         1 0M1      -0.172000
      6 C06          5.1890    -0.9080    -1.4010 ca         1 0M1      -0.049000
      7 Cl1          7.6210     0.2190    -0.8200 cl         1 0M1      -0.167000
      8 F08          5.9160     1.3520     1.3920 f          1 0M1      -0.157000
      9 N09          1.7620    -0.8260     0.0550 ns         1 0M1      -0.119000
     10 C10          0.8200    -0.4140     0.9930 c          1 0M1       0.524100
     11 C11         -0.6350    -1.0240     0.7230 c          1 0M1       0.520100
     12 N12         -1.6080    -0.6270     1.6260 ns         1 0M1      -0.461900
     13 O13         -0.8830    -1.7890    -0.2070 o          1 0M1      -0.609100
     14 O14          1.0540     0.3400     1.9400 o          1 0M1      -0.570100
     15 C15         -3.0260    -1.0070     1.5480 c3         1 0M1       0.105000
     16 C16         -3.8010    -0.3320     0.3900 c5         1 0M1       0.110300
     17 C17         -5.3260    -0.6750     0.3200 c5         1 0M1       0.144300
     18 O18         -5.9730     0.6270     0.2240 os         1 0M1      -0.473000
     19 C19         -4.9630     1.5900    -0.1280 c5         1 0M1       0.395000
     20 O20         -3.7960     1.1070     0.5520 os         1 0M1      -0.465000
     21 C21         -5.7330    -1.6070    -0.8610 c3         1 0M1       0.143800
     22 N22         -7.1910    -1.8840    -0.8880 n8         1 0M1      -0.992200
     23 C23         -4.7450     1.6610    -1.6640 c3         1 0M1      -0.108600
     24 C24         -5.3570     2.9670     0.4380 c3         1 0M1      -0.108600
     25 H1           3.4030     0.7920     1.6140 ha         1 0M1       0.168000
     26 H2           3.2790    -1.7970    -1.8640 ha         1 0M1       0.125000
     27 H3           5.6960    -1.3790    -2.2410 ha         1 0M1       0.134000
     28 H4           1.3880    -1.4470    -0.6520 hn         1 0M1       0.186000
     29 H5          -1.3150     0.0200     2.3530 hn         1 0M1       0.354500
     30 H6          -3.0930    -2.0970     1.4310 h1         1 0M1       0.073200
     31 H7          -3.5110    -0.7460     2.4980 h1         1 0M1       0.073200
     32 H8          -3.3040    -0.5830    -0.5560 h1         1 0M1       0.062700
     33 H9          -5.6570    -1.1490     1.2550 h1         1 0M1       0.077700
     34 H10         -5.4500    -1.1430    -1.8140 h1         1 0M1       0.034700
     35 H11         -5.1950    -2.5610    -0.7750 h1         1 0M1       0.034700
     36 H12         -7.6850    -0.9840    -0.9330 hn         1 0M1       0.400500
     37 H13         -7.4320    -2.3410    -1.7760 hn         1 0M1       0.400500
     38 H15         -5.6940     1.8390    -2.1810 hc         1 0M1       0.051200
     39 H16         -4.0730     2.4890    -1.9190 hc         1 0M1       0.051200
     40 H17         -4.3030     0.7520    -2.0810 hc         1 0M1       0.051200
     41 H18         -5.5280     2.9120     1.5190 hc         1 0M1       0.051200
     42 H19         -4.5670     3.7060     0.2590 hc         1 0M1       0.051200
     43 H20         -6.2760     3.3360    -0.0310 hc         1 0M1       0.051200
@<TRIPOS>BOND
     1     1     2 ar  
     2     1     6 ar  
     3     1     7 1   
     4     2     3 ar  
     5     2     8 1   
     6     3     4 ar  
     7     3    25 1   
     8     4     5 ar  
     9     4     9 1   
    10     5     6 ar  
    11     5    26 1   
    12     6    27 1   
    13     9    10 1   
    14     9    28 1   
    15    10    11 1   
    16    10    14 2   
    17    11    12 1   
    18    11    13 2   
    19    12    15 1   
    20    12    29 1   
    21    15    16 1   
    22    15    30 1   
    23    15    31 1   
    24    16    17 1   
    25    16    20 1   
    26    16    32 1   
    27    17    18 1   
    28    17    21 1   
    29    17    33 1   
    30    18    19 1   
    31    19    20 1   
    32    19    23 1   
    33    19    24 1   
    34    21    22 1   
    35    21    34 1   
    36    21    35 1   
    37    22    36 1   
    38    22    37 1   
    39    23    38 1   
    40    23    39 1   
    41    23    40 1   
    42    24    41 1   
    43    24    42 1   
    44    24    43 1   
@<TRIPOS>SUBSTRUCTURE
     1 0M1         1 TEMP              0 ****  ****    0 ROOT
