@<TRIPOS>MOLECULE
0M2
   42    45     1     0     0
SMALL
bcc


@<TRIPOS>ATOM
      1 C1          -0.2030     0.4380     0.0720 cc         1 0M2      -0.069300
      2 C2           0.1790    -0.8470     0.1150 cd         1 0M2      -0.069300
      3 C3           0.6350     1.6280     0.0460 ca         1 0M2      -0.032000
      4 C4          -1.6980     0.5270     0.1890 c5         1 0M2       0.218100
      5 C5           1.5310    -1.3880     0.1480 ca         1 0M2      -0.032000
      6 C6          -1.0330    -1.7200     0.2690 c5         1 0M2       0.218100
      7 C7           1.9080     1.6210    -0.5440 ca         1 0M2       0.020800
      8 C8           0.1590     2.8250     0.5850 ca         1 0M2      -0.101500
      9 N9          -2.1320    -0.8340    -0.0730 n3         1 0M2      -0.740600
     10 C10          2.6040    -0.7240    -0.4660 ca         1 0M2       0.020800
     11 C11          1.7770    -2.6140     0.7710 ca         1 0M2      -0.101500
     12 N12          2.3990     0.4680    -1.1830 na         1 0M2      -0.195300
     13 C13          2.6620     2.7900    -0.5700 ca         1 0M2      -0.181500
     14 C14          0.9100     3.9900     0.5510 ca         1 0M2      -0.149000
     15 C15         -3.4000    -1.2450     0.4840 c3         1 0M2       0.190800
     16 C16          3.8750    -1.2910    -0.4340 ca         1 0M2      -0.181500
     17 C17          3.0420    -3.1790     0.7930 ca         1 0M2      -0.149000
     18 C18          2.1660     3.9710    -0.0370 ca         1 0M2      -0.100500
     19 C19         -4.6160    -0.6500    -0.2070 c3         1 0M2       0.145100
     20 C20          4.0940    -2.5150     0.1800 ca         1 0M2      -0.100500
     21 C21         -5.8910    -1.3350     0.2660 c3         1 0M2      -0.130100
     22 O22         -4.6540     0.7390     0.0640 oh         1 0M2      -0.602800
     23 H1          -1.9760     0.8830     1.1980 h1         1 0M2       0.047950
     24 H2          -2.1310     1.2390    -0.5180 h1         1 0M2       0.047950
     25 H3          -1.0120    -2.5990    -0.3840 h1         1 0M2       0.047950
     26 H4          -1.0930    -2.0990     1.3050 h1         1 0M2       0.047950
     27 H5          -0.8260     2.8440     1.0370 ha         1 0M2       0.132500
     28 H7           0.9580    -3.1370     1.2490 ha         1 0M2       0.132500
     29 H8           3.2030     0.6870    -1.7550 hn         1 0M2       0.239700
     30 H9           3.6430     2.7780    -1.0320 ha         1 0M2       0.128000
     31 H10          0.5120     4.9040     0.9720 ha         1 0M2       0.133500
     32 H11         -3.4700    -2.3290     0.3670 h1         1 0M2       0.035700
     33 H12         -3.4640    -1.0450     1.5690 h1         1 0M2       0.035700
     34 H13          4.6980    -0.7730    -0.9130 ha         1 0M2       0.128000
     35 H14          3.2020    -4.1320     1.2800 ha         1 0M2       0.133500
     36 H15          2.7640     4.8710    -0.0850 ha         1 0M2       0.131000
     37 H16         -4.5000    -0.8260    -1.2860 h1         1 0M2       0.044700
     38 H17          5.0880    -2.9430     0.1810 ha         1 0M2       0.131000
     39 H18         -6.7690    -0.9000    -0.2150 hc         1 0M2       0.040700
     40 H19         -5.8770    -2.3980     0.0220 hc         1 0M2       0.040700
     41 H20         -6.0130    -1.2370     1.3460 hc         1 0M2       0.040700
     42 H21         -5.3900     1.1210    -0.4240 ho         1 0M2       0.402000
@<TRIPOS>BOND
     1     1     2 2   
     2     1     3 1   
     3     1     4 1   
     4     2     5 1   
     5     2     6 1   
     6     3     7 ar  
     7     3     8 ar  
     8     4     9 1   
     9     4    23 1   
    10     4    24 1   
    11     5    10 ar  
    12     5    11 ar  
    13     6     9 1   
    14     6    25 1   
    15     6    26 1   
    16     7    12 1   
    17     7    13 ar  
    18     8    14 ar  
    19     8    27 1   
    20     9    15 1   
    21    10    12 1   
    22    10    16 ar  
    23    11    17 ar  
    24    11    28 1   
    25    12    29 1   
    26    13    18 ar  
    27    13    30 1   
    28    14    18 ar  
    29    14    31 1   
    30    15    19 1   
    31    15    32 1   
    32    15    33 1   
    33    16    20 ar  
    34    16    34 1   
    35    17    20 ar  
    36    17    35 1   
    37    18    36 1   
    38    19    21 1   
    39    19    22 1   
    40    19    37 1   
    41    20    38 1   
    42    21    39 1   
    43    21    40 1   
    44    21    41 1   
    45    22    42 1   
@<TRIPOS>SUBSTRUCTURE
     1 0M2         1 TEMP              0 ****  ****    0 ROOT
