@<TRIPOS>MOLECULE
0M2
   42    45     1     0     0
SMALL
No Charge or Current Charge


@<TRIPOS>ATOM
      1 C1          -0.2700     0.4490     0.2360 cc         1 0M2      -0.069300
      2 C2           0.2140    -0.8290     0.4390 cd         1 0M2      -0.069300
      3 C3           0.6480     1.5930     0.1300 ca         1 0M2      -0.032000
      4 C4          -1.7650     0.5290     0.3580 c5         1 0M2       0.218100
      5 C5           1.5960    -1.3340     0.2880 ca         1 0M2      -0.032000
      6 C6          -1.0140    -1.6710     0.7320 c5         1 0M2       0.218100
      7 C7           1.8520     1.5580    -0.6090 ca         1 0M2       0.020800
      8 C8           0.2900     2.7980     0.7750 ca         1 0M2      -0.083500
      9 N9          -2.1060    -0.8900     0.0880 n3         1 0M2      -0.740600
     10 C10          2.5630    -0.6960    -0.5240 ca         1 0M2       0.020800
     11 C11          1.9480    -2.5380     0.9380 ca         1 0M2      -0.083500
     12 N12          2.2480     0.4190    -1.2820 na         1 0M2      -0.245600
     13 C13          2.6690     2.7000    -0.6950 ca         1 0M2      -0.163500
     14 C14          1.1110     3.9350     0.6930 ca         1 0M2      -0.131000
     15 C15         -3.4870    -1.3200     0.4430 c3         1 0M2       0.190800
     16 C16          3.8550    -1.2400    -0.6500 ca         1 0M2      -0.163500
     17 C17          3.2420    -3.0720     0.8160 ca         1 0M2      -0.131000
     18 C18          2.3030     3.8870    -0.0430 ca         1 0M2      -0.082500
     19 C19         -4.6500    -0.5970    -0.3140 c3         1 0M2       0.168300
     20 C20          4.1990    -2.4200     0.0260 ca         1 0M2      -0.082500
     21 C21         -5.9850    -1.3550    -0.1780 c3         1 0M2      -0.130100
     22 O22         -4.8490     0.7410     0.1790 oh         1 0M2      -0.665000
     23 H1          -2.0560     0.8460     1.3700 h1         1 0M2       0.047950
     24 H2          -2.1970     1.2180    -0.3800 h1         1 0M2       0.047950
     25 H3          -0.9120    -2.6760     0.3010 h1         1 0M2       0.047950
     26 H4          -1.1450    -1.7580     1.8200 h1         1 0M2       0.047950
     27 H5          -0.6310     2.8570     1.3500 ha         1 0M2       0.114500
     28 H7           1.2230    -3.0580     1.5580 ha         1 0M2       0.114500
     29 H8           2.4320     0.4400    -2.2770 hn         1 0M2       0.290000
     30 H9           3.5940     2.6670    -1.2680 ha         1 0M2       0.110000
     31 H10          0.8210     4.8530     1.1990 ha         1 0M2       0.115500
     32 H11         -3.5750    -2.3930     0.2290 h1         1 0M2       0.035700
     33 H12         -3.6490    -1.2040     1.5230 h1         1 0M2       0.035700
     34 H13          4.5930    -0.7520    -1.2820 ha         1 0M2       0.110000
     35 H14          3.5010    -3.9930     1.3340 ha         1 0M2       0.115500
     36 H15          2.9400     4.7670    -0.1100 ha         1 0M2       0.113000
     37 H16         -4.3890    -0.5690    -1.3820 h1         1 0M2       0.044700
     38 H17          5.2000    -2.8350    -0.0730 ha         1 0M2       0.113000
     39 H18         -6.7810    -0.8480    -0.7380 hc         1 0M2       0.040700
     40 H19         -5.8910    -2.3730    -0.5750 hc         1 0M2       0.040700
     41 H20         -6.2910    -1.4230     0.8730 hc         1 0M2       0.040700
     42 H21         -5.5400     1.1520    -0.3840 ho         1 0M2       0.441000
@<TRIPOS>BOND
     1     1     2 2   
     2     1     3 1   
     3     1     4 1   
     4     2     5 1   
     5     2     6 1   
     6     3     7 ar  
     7     3     8 ar  
     8     4     9 1   
     9     4    23 1   
    10     4    24 1   
    11     5    10 ar  
    12     5    11 ar  
    13     6     9 1   
    14     6    25 1   
    15     6    26 1   
    16     7    12 1   
    17     7    13 ar  
    18     8    14 ar  
    19     8    27 1   
    20     9    15 1   
    21    10    12 1   
    22    10    16 ar  
    23    11    17 ar  
    24    11    28 1   
    25    12    29 1   
    26    13    18 ar  
    27    13    30 1   
    28    14    18 ar  
    29    14    31 1   
    30    15    19 1   
    31    15    32 1   
    32    15    33 1   
    33    16    20 ar  
    34    16    34 1   
    35    17    20 ar  
    36    17    35 1   
    37    18    36 1   
    38    19    21 1   
    39    19    22 1   
    40    19    37 1   
    41    20    38 1   
    42    21    39 1   
    43    21    40 1   
    44    21    41 1   
    45    22    42 1   
@<TRIPOS>SUBSTRUCTURE
     1 0M2         1 TEMP              0 ****  ****    0 ROOT
