@<TRIPOS>MOLECULE
0M3
   65    68     1     0     0
SMALL
abcg2


@<TRIPOS>ATOM
      1 C1          38.1200   103.3470    11.5270 c3         1 0M3      -0.058800
      2 C2          37.8000   104.6330    10.8210 ca         1 0M3      -0.020300
      3 C3          37.0210   105.6140    11.4450 ca         1 0M3      -0.133500
      4 C4          36.7120   106.8010    10.8010 ca         1 0M3      -0.013000
      5 C5          37.1810   107.0170     9.5060 ca         1 0M3      -0.324500
      6 C6          37.9500   106.0550     8.8610 ca         1 0M3      -0.013000
      7 C7          38.2550   104.8730     9.5230 ca         1 0M3      -0.133500
      8 S8          36.9090   108.5860     8.7380 sy         1 0M3       1.178600
      9 O9          37.1800   108.4330     7.3280 o          1 0M3      -0.539500
     10 O10         35.6280   109.1030     9.1650 o          1 0M3      -0.539500
     11 N11         38.0300   109.6170     9.3410 n7         1 0M3      -0.872300
     12 C12         39.4630   109.2870     9.2260 c6         1 0M3       0.182500
     13 C13         40.2530   110.5450     8.8470 c6         1 0M3       0.156800
     14 N14         41.6930   110.3120     8.7600 n7         1 0M3      -0.844400
     15 C15         42.2410   109.7090     9.9740 c6         1 0M3       0.157800
     16 C16         41.5150   108.4160    10.3900 c6         1 0M3      -0.172700
     17 C17         40.0090   108.6780    10.5160 c6         1 0M3      -0.101400
     18 C18         42.0660   107.8860    11.7000 c          1 0M3       0.605100
     19 O19         42.1320   108.5970    12.7060 o          1 0M3      -0.599100
     20 N20         42.4520   106.5940    11.6820 ns         1 0M3      -0.499900
     21 C21         43.1420   105.9360    12.7740 c3         1 0M3       0.104000
     22 C22         44.6160   105.6610    12.4110 c3         1 0M3       0.007900
     23 C23         45.3360   106.9560    12.0700 ca         1 0M3      -0.076800
     24 C24         45.5520   107.2970    10.7350 ca         1 0M3      -0.102500
     25 C25         46.1530   108.5050    10.3940 ca         1 0M3      -0.108250
     26 C26         46.5480   109.3920    11.3890 ca         1 0M3      -0.106000
     27 C27         46.3400   109.0590    12.7250 ca         1 0M3      -0.108250
     28 C28         45.7410   107.8510    13.0610 ca         1 0M3      -0.102500
     29 C29         45.3380   104.8490    13.4680 ca         1 0M3      -0.076800
     30 C30         46.3190   103.9390    13.0670 ca         1 0M3      -0.102500
     31 C31         47.0320   103.1950    13.9990 ca         1 0M3      -0.108250
     32 C32         46.7730   103.3480    15.3580 ca         1 0M3      -0.106000
     33 C33         45.7970   104.2480    15.7710 ca         1 0M3      -0.108250
     34 C34         45.0840   104.9910    14.8330 ca         1 0M3      -0.102500
     35 H1          38.3430   103.5220    12.5810 hc         1 0M3       0.050700
     36 H2          37.2670   102.6640    11.4840 hc         1 0M3       0.050700
     37 H3          38.9720   102.8450    11.0670 hc         1 0M3       0.050700
     38 H4          36.6580   105.4460    12.4520 ha         1 0M3       0.118500
     39 H5          36.1210   107.5570    11.2990 ha         1 0M3       0.134000
     40 H6          38.3120   106.2330     7.8590 ha         1 0M3       0.134000
     41 H7          38.8610   104.1260     9.0240 ha         1 0M3       0.118500
     42 H8          37.7520   109.9730    10.2510 hn         1 0M3       0.485000
     43 H9          39.5640   108.5690     8.4100 h1         1 0M3       0.061700
     44 H10         40.0690   111.3160     9.6030 h1         1 0M3       0.070700
     45 H11         39.8940   110.9260     7.8900 h1         1 0M3       0.070700
     46 H12         41.8870   109.7090     7.9670 hn         1 0M3       0.405000
     47 H14         43.3010   109.5060     9.8150 h1         1 0M3       0.073200
     48 H15         42.1610   110.4340    10.7870 h1         1 0M3       0.073200
     49 H16         41.6730   107.6710     9.6050 hc         1 0M3       0.045700
     50 H17         39.8320   109.3780    11.3380 hc         1 0M3       0.062200
     51 H18         39.4840   107.7520    10.7520 hc         1 0M3       0.062200
     52 H19         42.3990   106.1020    10.8040 hn         1 0M3       0.306500
     53 H20         43.0650   106.5870    13.6410 h1         1 0M3       0.066700
     54 H21         42.6450   104.9930    13.0070 h1         1 0M3       0.066700
     55 H22         44.6040   105.0580    11.5000 hc         1 0M3       0.049700
     56 H23         45.2390   106.6120     9.9560 ha         1 0M3       0.110750
     57 H24         46.3080   108.7520     9.3510 ha         1 0M3       0.113750
     58 H25         47.0150   110.3330    11.1280 ha         1 0M3       0.114500
     59 H26         46.6470   109.7420    13.5080 ha         1 0M3       0.113750
     60 H27         45.5830   107.6060    14.1040 ha         1 0M3       0.110750
     61 H28         46.5230   103.8160    12.0090 ha         1 0M3       0.110750
     62 H29         47.7860   102.4940    13.6640 ha         1 0M3       0.113750
     63 H30         47.3250   102.7690    16.0880 ha         1 0M3       0.114500
     64 H31         45.5840   104.3730    16.8260 ha         1 0M3       0.113750
     65 H32         44.3300   105.6850    15.1800 ha         1 0M3       0.110750
@<TRIPOS>BOND
     1     1     2 1   
     2     1    35 1   
     3     1    36 1   
     4     1    37 1   
     5     2     3 ar  
     6     2     7 ar  
     7     3     4 ar  
     8     3    38 1   
     9     4     5 ar  
    10     4    39 1   
    11     5     6 ar  
    12     5     8 1   
    13     6     7 ar  
    14     6    40 1   
    15     7    41 1   
    16     8     9 2   
    17     8    10 2   
    18     8    11 1   
    19    11    12 1   
    20    11    42 1   
    21    12    13 1   
    22    12    17 1   
    23    12    43 1   
    24    13    14 1   
    25    13    44 1   
    26    13    45 1   
    27    14    15 1   
    28    14    46 1   
    29    15    16 1   
    30    15    47 1   
    31    15    48 1   
    32    16    17 1   
    33    16    18 1   
    34    16    49 1   
    35    17    50 1   
    36    17    51 1   
    37    18    19 2   
    38    18    20 1   
    39    20    21 1   
    40    20    52 1   
    41    21    22 1   
    42    21    53 1   
    43    21    54 1   
    44    22    23 1   
    45    22    29 1   
    46    22    55 1   
    47    23    24 ar  
    48    23    28 ar  
    49    24    25 ar  
    50    24    56 1   
    51    25    26 ar  
    52    25    57 1   
    53    26    27 ar  
    54    26    58 1   
    55    27    28 ar  
    56    27    59 1   
    57    28    60 1   
    58    29    30 ar  
    59    29    34 ar  
    60    30    31 ar  
    61    30    61 1   
    62    31    32 ar  
    63    31    62 1   
    64    32    33 ar  
    65    32    63 1   
    66    33    34 ar  
    67    33    64 1   
    68    34    65 1   
@<TRIPOS>SUBSTRUCTURE
     1 0M3         1 TEMP              0 ****  ****    0 ROOT
