@<TRIPOS>MOLECULE
0M3
   65    68     1     0     0
SMALL
No Charge or Current Charge


@<TRIPOS>ATOM
      1 C1          38.0350   103.5210    11.6610 c3         1 0M3      -0.058800
      2 C2          37.7220   104.8070    10.9130 ca         1 0M3      -0.020300
      3 C3          36.9550   105.8160    11.5240 ca         1 0M3      -0.133500
      4 C4          36.6690   107.0090    10.8370 ca         1 0M3      -0.013000
      5 C5          37.1550   107.2020     9.5270 ca         1 0M3      -0.324500
      6 C6          37.9080   106.1840     8.9060 ca         1 0M3      -0.013000
      7 C7          38.1910   104.9950     9.6000 ca         1 0M3      -0.133500
      8 S8          36.8270   108.7460     8.6640 sy         1 0M3       1.178600
      9 O9          37.1100   108.6150     7.2320 o          1 0M3      -0.539500
     10 O10         35.5750   109.3270     9.1510 o          1 0M3      -0.539500
     11 N11         38.0170   109.7510     9.2790 n7         1 0M3      -0.872300
     12 C12         39.4070   109.2520     9.1580 c6         1 0M3       0.182500
     13 C13         40.3550   110.3680     8.6120 c6         1 0M3       0.156800
     14 N14         41.7740   109.9090     8.4930 n7         1 0M3      -0.844400
     15 C15         42.3350   109.4320     9.7830 c6         1 0M3       0.157800
     16 C16         41.4370   108.3330    10.3980 c6         1 0M3      -0.172700
     17 C17         39.9450   108.7440    10.5230 c6         1 0M3      -0.101400
     18 C18         42.0270   107.7730    11.7020 c          1 0M3       0.605100
     19 O19         42.1600   108.4680    12.6990 o          1 0M3      -0.599100
     20 N20         42.3870   106.4430    11.6700 ns         1 0M3      -0.499900
     21 C21         43.1280   105.7520    12.7330 c3         1 0M3       0.104000
     22 C22         44.6370   105.6280    12.3960 c3         1 0M3       0.007900
     23 C23         45.2770   106.9960    12.1440 ca         1 0M3      -0.076800
     24 C24         45.6800   107.3640    10.8430 ca         1 0M3      -0.102500
     25 C25         46.2480   108.6280    10.6040 ca         1 0M3      -0.108250
     26 C26         46.4190   109.5340    11.6640 ca         1 0M3      -0.106000
     27 C27         46.0230   109.1750    12.9630 ca         1 0M3      -0.108250
     28 C28         45.4540   107.9120    13.2020 ca         1 0M3      -0.102500
     29 C29         45.4510   104.8220    13.4180 ca         1 0M3      -0.076800
     30 C30         46.6020   104.1360    12.9770 ca         1 0M3      -0.102500
     31 C31         47.3830   103.3900    13.8780 ca         1 0M3      -0.108250
     32 C32         47.0230   103.3250    15.2330 ca         1 0M3      -0.106000
     33 C33         45.8840   104.0100    15.6860 ca         1 0M3      -0.108250
     34 C34         45.1020   104.7560    14.7860 ca         1 0M3      -0.102500
     35 H1          38.0720   103.6870    12.7450 hc         1 0M3       0.050700
     36 H2          37.2710   102.7600    11.4640 hc         1 0M3       0.050700
     37 H3          39.0050   103.1090    11.3590 hc         1 0M3       0.050700
     38 H4          36.5810   105.6790    12.5350 ha         1 0M3       0.118500
     39 H5          36.0780   107.7790    11.3310 ha         1 0M3       0.134000
     40 H6          38.2850   106.3100     7.8910 ha         1 0M3       0.134000
     41 H7          38.7780   104.2190     9.1150 ha         1 0M3       0.118500
     42 H8          37.7530   109.7670    10.2620 hn         1 0M3       0.485000
     43 H9          39.4540   108.4240     8.4340 h1         1 0M3       0.061700
     44 H10         40.3060   111.2400     9.2820 h1         1 0M3       0.070700
     45 H11         39.9910   110.6960     7.6280 h1         1 0M3       0.070700
     46 H12         41.8080   109.1350     7.8180 hn         1 0M3       0.405000
     47 H14         43.3540   109.0420     9.6290 h1         1 0M3       0.073200
     48 H15         42.4130   110.2750    10.4870 h1         1 0M3       0.073200
     49 H16         41.4560   107.4970     9.6840 hc         1 0M3       0.045700
     50 H17         39.8470   109.5350    11.2800 hc         1 0M3       0.062200
     51 H18         39.3620   107.8890    10.8850 hc         1 0M3       0.062200
     52 H19         42.2180   105.9480    10.8040 hn         1 0M3       0.306500
     53 H20         42.9960   106.2980    13.6760 h1         1 0M3       0.066700
     54 H21         42.7010   104.7490    12.8630 h1         1 0M3       0.066700
     55 H22         44.6700   105.0620    11.4570 hc         1 0M3       0.049700
     56 H23         45.5490   106.6740    10.0130 ha         1 0M3       0.110750
     57 H24         46.5530   108.9040     9.5980 ha         1 0M3       0.113750
     58 H25         46.8580   110.5120    11.4790 ha         1 0M3       0.114500
     59 H26         46.1540   109.8750    13.7840 ha         1 0M3       0.113750
     60 H27         45.1450   107.6480    14.2100 ha         1 0M3       0.110750
     61 H28         46.8950   104.1820    11.9310 ha         1 0M3       0.110750
     62 H29         48.2670   102.8650    13.5240 ha         1 0M3       0.113750
     63 H30         47.6260   102.7490    15.9310 ha         1 0M3       0.114500
     64 H31         45.6060   103.9650    16.7370 ha         1 0M3       0.113750
     65 H32         44.2330   105.2830    15.1690 ha         1 0M3       0.110750
@<TRIPOS>BOND
     1     1     2 1   
     2     1    35 1   
     3     1    36 1   
     4     1    37 1   
     5     2     3 ar  
     6     2     7 ar  
     7     3     4 ar  
     8     3    38 1   
     9     4     5 ar  
    10     4    39 1   
    11     5     6 ar  
    12     5     8 1   
    13     6     7 ar  
    14     6    40 1   
    15     7    41 1   
    16     8     9 2   
    17     8    10 2   
    18     8    11 1   
    19    11    12 1   
    20    11    42 1   
    21    12    13 1   
    22    12    17 1   
    23    12    43 1   
    24    13    14 1   
    25    13    44 1   
    26    13    45 1   
    27    14    15 1   
    28    14    46 1   
    29    15    16 1   
    30    15    47 1   
    31    15    48 1   
    32    16    17 1   
    33    16    18 1   
    34    16    49 1   
    35    17    50 1   
    36    17    51 1   
    37    18    19 2   
    38    18    20 1   
    39    20    21 1   
    40    20    52 1   
    41    21    22 1   
    42    21    53 1   
    43    21    54 1   
    44    22    23 1   
    45    22    29 1   
    46    22    55 1   
    47    23    24 ar  
    48    23    28 ar  
    49    24    25 ar  
    50    24    56 1   
    51    25    26 ar  
    52    25    57 1   
    53    26    27 ar  
    54    26    58 1   
    55    27    28 ar  
    56    27    59 1   
    57    28    60 1   
    58    29    30 ar  
    59    29    34 ar  
    60    30    31 ar  
    61    30    61 1   
    62    31    32 ar  
    63    31    62 1   
    64    32    33 ar  
    65    32    63 1   
    66    33    34 ar  
    67    33    64 1   
    68    34    65 1   
@<TRIPOS>SUBSTRUCTURE
     1 0M3         1 TEMP              0 ****  ****    0 ROOT
