@<TRIPOS>MOLECULE
0M4
   42    44     1     0     0
SMALL
No Charge or Current Charge


@<TRIPOS>ATOM
      1 C01          5.8510    -0.2550     0.0580 ca         1 0M4       0.039000
      2 C02          4.9550     0.6080    -0.6000 ca         1 0M4       0.207000
      3 C03          3.5680     0.4200    -0.4820 ca         1 0M4      -0.176000
      4 C04          3.0560    -0.6400     0.3000 ca         1 0M4       0.008000
      5 C05          3.9600    -1.4990     0.9550 ca         1 0M4      -0.172000
      6 C06          5.3500    -1.3100     0.8360 ca         1 0M4      -0.049000
      7 Cl1          7.5940    -0.0300    -0.0830 cl         1 0M4      -0.167000
      8 F08          5.4220     1.6290    -1.3540 f          1 0M4      -0.158000
      9 N09          1.6670    -0.8940     0.4670 ns         1 0M4      -0.120000
     10 C10          0.5320    -0.2570    -0.0250 c          1 0M4       0.524100
     11 C11         -0.8300    -0.9440     0.4640 c          1 0M4       0.517100
     12 N12         -1.9840    -0.3390    -0.0030 ns         1 0M4      -0.467900
     13 O13         -0.8630    -1.9330     1.1950 o          1 0M4      -0.608100
     14 O14          0.5430     0.7330    -0.7600 o          1 0M4      -0.579100
     15 C15         -3.3420    -0.7870     0.3170 c3         1 0M4       0.114000
     16 C16         -4.4590     0.1320    -0.2480 c5         1 0M4      -0.078000
     17 C17         -4.4910     1.5570     0.3920 c5         1 0M4       0.156800
     18 N18         -5.1400     1.2940     1.6930 n7         1 0M4      -0.857400
     19 C19         -6.3120     0.4400     1.3730 c5         1 0M4       0.154800
     20 C20         -5.9030    -0.3580     0.0880 c5         1 0M4      -0.069700
     21 C21         -4.4560     0.3040    -1.8180 c5         1 0M4      -0.074400
     22 C22         -6.7550     0.1570    -1.1100 c5         1 0M4      -0.075400
     23 C23         -5.8310    -0.2710    -2.2720 c5         1 0M4      -0.078400
     24 H1           2.9150     1.1090    -1.0070 ha         1 0M4       0.166000
     25 H2           3.5880    -2.3220     1.5620 ha         1 0M4       0.126000
     26 H3           6.0360    -1.9810     1.3470 ha         1 0M4       0.133000
     27 H4           1.4630    -1.6920     1.0570 hn         1 0M4       0.188000
     28 H5          -1.8620     0.4700    -0.6040 hn         1 0M4       0.343500
     29 H6          -3.4760    -1.7980    -0.0910 h1         1 0M4       0.064200
     30 H7          -3.4430    -0.8530     1.4080 h1         1 0M4       0.064200
     31 H9          -3.4890     1.9900     0.5150 h1         1 0M4       0.040200
     32 H8          -5.0920     2.2680    -0.1930 h1         1 0M4       0.040200
     33 H10         -5.4400     2.1700     2.1390 hn         1 0M4       0.417000
     34 H12         -6.5410    -0.2310     2.2130 h1         1 0M4       0.038200
     35 H13         -7.2040     1.0580     1.1980 h1         1 0M4       0.038200
     36 H14         -5.9740    -1.4460     0.2150 hc         1 0M4       0.063700
     37 H15         -4.3490     1.3510    -2.1260 hc         1 0M4       0.048200
     38 H16         -3.6330    -0.2380    -2.2970 hc         1 0M4       0.048200
     39 H18         -7.7390    -0.3220    -1.1590 hc         1 0M4       0.046700
     40 H17         -6.9170     1.2420    -1.1040 hc         1 0M4       0.046700
     41 H20         -6.1540     0.1370    -3.2370 hc         1 0M4       0.047700
     42 H19         -5.7950    -1.3630    -2.3760 hc         1 0M4       0.047700
@<TRIPOS>BOND
     1     1     2 ar  
     2     1     6 ar  
     3     1     7 1   
     4     2     3 ar  
     5     2     8 1   
     6     3     4 ar  
     7     3    24 1   
     8     4     5 ar  
     9     4     9 1   
    10     5     6 ar  
    11     5    25 1   
    12     6    26 1   
    13     9    10 1   
    14     9    27 1   
    15    10    11 1   
    16    10    14 2   
    17    11    12 1   
    18    11    13 2   
    19    12    15 1   
    20    12    28 1   
    21    15    16 1   
    22    15    29 1   
    23    15    30 1   
    24    16    17 1   
    25    16    20 1   
    26    16    21 1   
    27    17    18 1   
    28    17    31 1   
    29    17    32 1   
    30    18    19 1   
    31    18    33 1   
    32    19    20 1   
    33    19    34 1   
    34    19    35 1   
    35    20    22 1   
    36    20    36 1   
    37    21    23 1   
    38    21    37 1   
    39    21    38 1   
    40    22    23 1   
    41    22    39 1   
    42    22    40 1   
    43    23    41 1   
    44    23    42 1   
@<TRIPOS>SUBSTRUCTURE
     1 0M4         1 TEMP              0 ****  ****    0 ROOT
