@<TRIPOS>MOLECULE
0M4
   42    44     1     0     0
SMALL
bcc


@<TRIPOS>ATOM
      1 C01          5.6080    -0.3330    -0.0210 ca         1 0M4      -0.052600
      2 C02          4.7200     0.5990    -0.5280 ca         1 0M4       0.171900
      3 C03          3.3520     0.4610    -0.4090 ca         1 0M4      -0.194000
      4 C04          2.8500    -0.6610     0.2480 ca         1 0M4       0.100600
      5 C05          3.7360    -1.6090     0.7650 ca         1 0M4      -0.190000
      6 C06          5.1010    -1.4450     0.6320 ca         1 0M4      -0.067000
      7 CL1          7.3030    -0.0970    -0.2090 cl         1 0M4      -0.075400
      8 F08          5.2020     1.6720    -1.1580 f          1 0M4      -0.122900
      9 N09          1.4910    -0.9050     0.4270 ns         1 0M4      -0.446100
     10 C10          0.4340    -0.1940     0.0030 c          1 0M4       0.591100
     11 C11         -0.8900    -0.8530     0.4240 c          1 0M4       0.584100
     12 N12         -1.9640    -0.1880     0.0240 ns         1 0M4      -0.534900
     13 O13         -0.8950    -1.8930     1.0670 o          1 0M4      -0.608100
     14 O14          0.4590     0.8400    -0.6370 o          1 0M4      -0.579100
     15 C15         -3.3100    -0.6510     0.3020 c3         1 0M4       0.114000
     16 C16         -4.3720     0.3280    -0.1860 c5         1 0M4      -0.078000
     17 C17         -4.3390     1.6350     0.6210 c5         1 0M4       0.156800
     18 N18         -5.1740     1.3260     1.7680 n7         1 0M4      -0.802200
     19 C19         -6.3580     0.7030     1.1970 c5         1 0M4       0.154800
     20 C20         -5.7780    -0.2600     0.1560 c5         1 0M4      -0.069700
     21 C21         -4.3630     0.4850    -1.7190 c5         1 0M4      -0.074400
     22 C22         -6.5230    -0.3830    -1.1760 c5         1 0M4      -0.075400
     23 C23         -5.4090    -0.5140    -2.2120 c5         1 0M4      -0.078400
     24 H1           2.7130     1.2230    -0.8250 ha         1 0M4       0.184000
     25 H2           3.3560    -2.4860     1.2730 ha         1 0M4       0.144000
     26 H3           5.7740    -2.1880     1.0370 ha         1 0M4       0.151000
     27 H4           1.2530    -1.7450     0.9420 hn         1 0M4       0.354500
     28 H5          -1.8250     0.6480    -0.5240 hn         1 0M4       0.343500
     29 H6          -3.4620    -1.6270    -0.1700 h1         1 0M4       0.064200
     30 H7          -3.4250    -0.7960     1.3790 h1         1 0M4       0.064200
     31 H9          -3.3350     1.9340     0.9350 h1         1 0M4       0.040200
     32 H8          -4.7460     2.4530     0.0070 h1         1 0M4       0.040200
     33 H10         -5.4040     2.1570     2.2990 hn         1 0M4       0.361800
     34 H12         -6.9490     0.1980     1.9640 h1         1 0M4       0.038200
     35 H13         -7.0190     1.4300     0.7000 h1         1 0M4       0.038200
     36 H14         -5.6620    -1.2540     0.6000 hc         1 0M4       0.063700
     37 H15         -4.6740     1.4980    -1.9880 hc         1 0M4       0.048200
     38 H16         -3.3810     0.3250    -2.1700 hc         1 0M4       0.048200
     39 H18         -7.2260    -1.2160    -1.1900 hc         1 0M4       0.046700
     40 H17         -7.0980     0.5280    -1.3700 hc         1 0M4       0.046700
     41 H20         -5.7430    -0.3110    -3.2310 hc         1 0M4       0.047700
     42 H19         -4.9990    -1.5280    -2.2040 hc         1 0M4       0.047700
@<TRIPOS>BOND
     1     1     2 ar  
     2     1     6 ar  
     3     1     7 1   
     4     2     3 ar  
     5     2     8 1   
     6     3     4 ar  
     7     3    24 1   
     8     4     5 ar  
     9     4     9 1   
    10     5     6 ar  
    11     5    25 1   
    12     6    26 1   
    13     9    10 1   
    14     9    27 1   
    15    10    11 1   
    16    10    14 2   
    17    11    12 1   
    18    11    13 2   
    19    12    15 1   
    20    12    28 1   
    21    15    16 1   
    22    15    29 1   
    23    15    30 1   
    24    16    17 1   
    25    16    20 1   
    26    16    21 1   
    27    17    18 1   
    28    17    31 1   
    29    17    32 1   
    30    18    19 1   
    31    18    33 1   
    32    19    20 1   
    33    19    34 1   
    34    19    35 1   
    35    20    22 1   
    36    20    36 1   
    37    21    23 1   
    38    21    37 1   
    39    21    38 1   
    40    22    23 1   
    41    22    39 1   
    42    22    40 1   
    43    23    41 1   
    44    23    42 1   
@<TRIPOS>SUBSTRUCTURE
     1 0M4         1 TEMP              0 ****  ****    0 ROOT
