@<TRIPOS>MOLECULE
0M5
   42    44     1     0     0
SMALL
No Charge or Current Charge


@<TRIPOS>ATOM
      1 C01         -5.1970    -0.4720     0.2290 ca         1 0M5       0.207000
      2 C02         -5.7730     0.1910    -0.8710 ca         1 0M5       0.040000
      3 C03         -4.9710     1.0070    -1.6840 ca         1 0M5      -0.049000
      4 C04         -3.6030     1.1590    -1.3970 ca         1 0M5      -0.172000
      5 C05         -3.0170     0.5000    -0.2980 ca         1 0M5       0.007000
      6 C06         -3.8300    -0.3200     0.5160 ca         1 0M5      -0.176000
      7 C10          3.9600    -0.4950     1.0060 c5         1 0M5      -0.085700
      8 C11          3.7020    -0.7070    -0.5180 c5         1 0M5      -0.079400
      9 C15          7.9950     0.0300    -1.7740 cx         1 0M5      -0.122400
     10 Cl          -7.4870     0.0090    -1.2410 cl         1 0M5      -0.167000
     11 F           -5.9560    -1.2620     1.0220 f          1 0M5      -0.158000
     12 N01         -1.6280     0.7020    -0.0720 ns         1 0M5      -0.120000
     13 C07         -0.7560     0.2170     0.8970 c          1 0M5       0.523100
     14 O01         -1.0740    -0.5450     1.8130 o          1 0M5      -0.577100
     15 C08          0.7420     0.7510     0.7100 c          1 0M5       0.520100
     16 N02          1.6470     0.2810     1.6520 ns         1 0M5      -0.470900
     17 O            1.0720     1.5210    -0.1910 o          1 0M5      -0.605100
     18 C09          3.0820     0.5880     1.6740 c3         1 0M5       0.104000
     19 C12          5.0660    -1.2620    -0.9750 c5         1 0M5       0.165800
     20 N            5.9440    -0.2610    -0.3390 n3         1 0M5      -0.704600
     21 C13          5.4980    -0.2140     1.0780 c5         1 0M5       0.169800
     22 C14          7.3550    -0.4940    -0.5140 cx         1 0M5       0.106500
     23 C            8.2710     0.7000    -0.4450 cx         1 0M5      -0.122400
     24 H01         -5.4100     1.5220    -2.5360 ha         1 0M5       0.134000
     25 H02         -2.9950     1.7960    -2.0370 ha         1 0M5       0.125000
     26 H03         -3.4290    -0.8500     1.3740 ha         1 0M5       0.167000
     27 H08          3.7520    -1.4280     1.5440 hc         1 0M5       0.053700
     28 H09          2.8780    -1.4010    -0.7160 hc         1 0M5       0.053700
     29 H10          3.4720     0.2350    -1.0300 hc         1 0M5       0.053700
     30 H16          7.3630     0.5560    -2.4860 hc         1 0M5       0.075450
     31 H04         -1.1870     1.3180    -0.7450 hn         1 0M5       0.188000
     32 H05          1.2720    -0.3460     2.3580 hn         1 0M5       0.341500
     33 H06          3.3910     0.6960     2.7220 h1         1 0M5       0.063700
     34 H07          3.2580     1.5530     1.1800 h1         1 0M5       0.063700
     35 H11          5.2470    -2.2770    -0.5920 h1         1 0M5       0.039700
     36 H12          5.1640    -1.2760    -2.0690 h1         1 0M5       0.039700
     37 H13          5.7280     0.7580     1.5360 h1         1 0M5       0.041700
     38 H14          5.9930    -0.9890     1.6800 h1         1 0M5       0.041700
     39 H15          7.7310    -1.4390    -0.1170 h1         1 0M5       0.055700
     40 H            9.2500     0.5570     0.0030 hc         1 0M5       0.075450
     41 H18          7.8240     1.6750    -0.2670 hc         1 0M5       0.075450
     42 H17          8.7890    -0.5640    -2.2190 hc         1 0M5       0.075450
@<TRIPOS>BOND
     1     1     2 ar  
     2     1     6 ar  
     3     1    11 1   
     4     2     3 ar  
     5     2    10 1   
     6     3     4 ar  
     7     3    24 1   
     8     4     5 ar  
     9     4    25 1   
    10     5     6 ar  
    11     5    12 1   
    12     6    26 1   
    13     7     8 1   
    14     7    18 1   
    15     7    21 1   
    16     7    27 1   
    17     8    19 1   
    18     8    28 1   
    19     8    29 1   
    20     9    22 1   
    21     9    23 1   
    22     9    30 1   
    23     9    42 1   
    24    12    13 1   
    25    12    31 1   
    26    13    14 2   
    27    13    15 1   
    28    15    16 1   
    29    15    17 2   
    30    16    18 1   
    31    16    32 1   
    32    18    33 1   
    33    18    34 1   
    34    19    20 1   
    35    19    35 1   
    36    19    36 1   
    37    20    21 1   
    38    20    22 1   
    39    21    37 1   
    40    21    38 1   
    41    22    23 1   
    42    22    39 1   
    43    23    40 1   
    44    23    41 1   
@<TRIPOS>SUBSTRUCTURE
     1 0M5         1 TEMP              0 ****  ****    0 ROOT
