@<TRIPOS>MOLECULE
0M5
   42    44     1     0     0
SMALL
bcc


@<TRIPOS>ATOM
      1 C01         -4.9890    -0.5730     0.0220 ca         1 0M5       0.171900
      2 C02         -5.7610     0.3970    -0.5900 ca         1 0M5      -0.051600
      3 C03         -5.1350     1.5320    -1.0800 ca         1 0M5      -0.067000
      4 C04         -3.7670     1.6790    -0.9520 ca         1 0M5      -0.190000
      5 C05         -2.9980     0.6930    -0.3310 ca         1 0M5       0.099600
      6 C06         -3.6210    -0.4520     0.1630 ca         1 0M5      -0.194000
      7 C10          3.9620    -0.6080     1.1600 c5         1 0M5      -0.085700
      8 C11          3.9220    -1.6320     0.0000 c5         1 0M5      -0.079400
      9 C15          7.8450     0.0570    -1.6470 cx         1 0M5      -0.122400
     10 CL          -7.4630     0.1800    -0.7290 cl         1 0M5      -0.075400
     11 F           -5.5850    -1.6680     0.4980 f          1 0M5      -0.122900
     12 N01         -1.6280     0.9250    -0.2430 ns         1 0M5      -0.446100
     13 C07         -0.6800     0.1850     0.3570 c          1 0M5       0.590100
     14 O01         -0.8410    -0.8690     0.9400 o          1 0M5      -0.577100
     15 C08          0.7070     0.8410     0.2400 c          1 0M5       0.587100
     16 N02          1.6600     0.1550     0.8550 ns         1 0M5      -0.537900
     17 O            0.8550     1.8900    -0.3690 o          1 0M5      -0.605100
     18 C09          3.0430     0.5810     0.9220 c3         1 0M5       0.104000
     19 C12          5.3690    -1.7200    -0.4820 c5         1 0M5       0.165800
     20 N            5.9110    -0.4190    -0.1380 n3         1 0M5      -0.704600
     21 C13          5.4290    -0.1600     1.2050 c5         1 0M5       0.169800
     22 C14          7.3190    -0.2950    -0.2930 cx         1 0M5       0.106500
     23 C            7.8750     1.0710    -0.5400 cx         1 0M5      -0.122400
     24 H01         -5.7170     2.3060    -1.5610 ha         1 0M5       0.152000
     25 H02         -3.2930     2.5720    -1.3380 ha         1 0M5       0.143000
     26 H03         -3.0740    -1.2430     0.6510 ha         1 0M5       0.185000
     27 H08          3.6870    -1.0740     2.1090 hc         1 0M5       0.053700
     28 H09          3.5390    -2.6020     0.3140 hc         1 0M5       0.053700
     29 H10          3.2750    -1.2750    -0.8040 hc         1 0M5       0.053700
     30 H16          7.1210     0.1980    -2.4390 hc         1 0M5       0.075450
     31 H04         -1.2910     1.7780    -0.6720 hn         1 0M5       0.354500
     32 H05          1.3890    -0.6760     1.3590 hn         1 0M5       0.341500
     33 H06          3.1650     1.3170     1.7220 h1         1 0M5       0.063700
     34 H07          3.3100     1.0690    -0.0170 h1         1 0M5       0.063700
     35 H11          5.8980    -2.5350     0.0400 h1         1 0M5       0.039700
     36 H12          5.4550    -1.9090    -1.5540 h1         1 0M5       0.039700
     37 H13          5.5510     0.8940     1.4680 h1         1 0M5       0.041700
     38 H14          5.9760    -0.7490     1.9590 h1         1 0M5       0.041700
     39 H15          7.9340    -0.9700     0.3100 h1         1 0M5       0.055700
     40 H            8.8300     1.3230    -0.0990 hc         1 0M5       0.075450
     41 H18          7.1690     1.8900    -0.5890 hc         1 0M5       0.075450
     42 H17          8.7810    -0.3850    -1.9640 hc         1 0M5       0.075450
@<TRIPOS>BOND
     1     1     2 ar  
     2     1     6 ar  
     3     1    11 1   
     4     2     3 ar  
     5     2    10 1   
     6     3     4 ar  
     7     3    24 1   
     8     4     5 ar  
     9     4    25 1   
    10     5     6 ar  
    11     5    12 1   
    12     6    26 1   
    13     7     8 1   
    14     7    18 1   
    15     7    21 1   
    16     7    27 1   
    17     8    19 1   
    18     8    28 1   
    19     8    29 1   
    20     9    22 1   
    21     9    23 1   
    22     9    30 1   
    23     9    42 1   
    24    12    13 1   
    25    12    31 1   
    26    13    14 2   
    27    13    15 1   
    28    15    16 1   
    29    15    17 2   
    30    16    18 1   
    31    16    32 1   
    32    18    33 1   
    33    18    34 1   
    34    19    20 1   
    35    19    35 1   
    36    19    36 1   
    37    20    21 1   
    38    20    22 1   
    39    21    37 1   
    40    21    38 1   
    41    22    23 1   
    42    22    39 1   
    43    23    40 1   
    44    23    41 1   
@<TRIPOS>SUBSTRUCTURE
     1 0M5         1 TEMP              0 ****  ****    0 ROOT
