@<TRIPOS>MOLECULE
0M6
   51    51     1     0     0
SMALL
No Charge or Current Charge


@<TRIPOS>ATOM
      1 CAK          4.7150     1.2360    -1.0250 ca         1 0M6      -0.106500
      2 CAI          6.0600     1.5980    -1.2190 ca         1 0M6      -0.098500
      3 CAH          6.9850     1.4600    -0.1700 ca         1 0M6      -0.111000
      4 CAJ          6.5610     0.9670     1.0750 ca         1 0M6      -0.098500
      5 CAL          5.2150     0.6080     1.2680 ca         1 0M6      -0.106500
      6 CAV          4.2850     0.7240     0.2170 ca         1 0M6       0.056600
      7 NAP          2.9380     0.3640     0.4710 ns         1 0M6      -0.371100
      8 CAU          1.9110    -0.0700    -0.3260 cs         1 0M6       0.484400
      9 SAG          2.0410    -0.4780    -1.9440 s          1 0M6      -0.665400
     10 N            0.7480    -0.1890     0.3820 ns         1 0M6      -0.447900
     11 CA          -0.5500    -0.6850    -0.1250 c3         1 0M6       0.035700
     12 CB          -0.5580    -2.2430    -0.0970 c3         1 0M6      -0.092400
     13 CG          -1.8020    -2.9470    -0.7100 c3         1 0M6      -0.059700
     14 CD2         -2.0060    -2.6080    -2.2060 c3         1 0M6      -0.089100
     15 CD1         -1.7180    -4.4770    -0.5070 c3         1 0M6      -0.089100
     16 C           -1.6980    -0.0650     0.7230 c          1 0M6       0.591100
     17 O           -1.5340     0.3300     1.8720 o          1 0M6      -0.627100
     18 NAQ         -2.9150     0.0430     0.0860 ns         1 0M6      -0.485900
     19 CAZ         -4.1520     0.5560     0.6880 c3         1 0M6       0.113700
     20 CAX         -5.3390    -0.3830     0.3420 c3         1 0M6       0.140600
     21 OAF         -5.4530    -0.5720    -1.0800 oh         1 0M6      -0.665000
     22 CAN         -4.4140     2.0260     0.2720 c3         1 0M6      -0.092400
     23 CAM         -3.3100     3.0100     0.7110 c3         1 0M6       0.162600
     24 OAE         -3.6850     4.3430     0.3490 oh         1 0M6      -0.662000
     25 H1           4.0140     1.3800    -1.8410 ha         1 0M6       0.124000
     26 H2           6.3840     1.9920    -2.1800 ha         1 0M6       0.116500
     27 H3           8.0250     1.7400    -0.3200 ha         1 0M6       0.116000
     28 H4           7.2730     0.8660     1.8910 ha         1 0M6       0.116500
     29 H5           4.8990     0.2280     2.2360 ha         1 0M6       0.124000
     30 H6           2.6860     0.4650     1.4450 hn         1 0M6       0.310500
     31 H7           0.7650     0.1020     1.3540 hn         1 0M6       0.327500
     32 H8          -0.6780    -0.3290    -1.1550 h1         1 0M6       0.110700
     33 H9           0.3340    -2.6090    -0.6200 hc         1 0M6       0.060200
     34 H10         -0.4490    -2.5650     0.9470 hc         1 0M6       0.060200
     35 H11         -2.6940    -2.6130    -0.1650 hc         1 0M6       0.049700
     36 H12         -2.8730    -3.1470    -2.6090 hc         1 0M6       0.036533
     37 H13         -2.1860    -1.5380    -2.3570 hc         1 0M6       0.036533
     38 H14         -1.1250    -2.8940    -2.7940 hc         1 0M6       0.036533
     39 H15         -1.6290    -4.7240     0.5580 hc         1 0M6       0.036533
     40 H16         -2.6190    -4.9700    -0.8920 hc         1 0M6       0.036533
     41 H17         -0.8490    -4.8940    -1.0300 hc         1 0M6       0.036533
     42 H18         -2.9790    -0.3190    -0.8580 hn         1 0M6       0.329500
     43 H19         -4.0430     0.5360     1.7810 h1         1 0M6       0.078700
     44 H20         -5.1740    -1.3510     0.8350 h1         1 0M6       0.034200
     45 H21         -6.2670     0.0400     0.7510 h1         1 0M6       0.034200
     46 H22         -6.2340    -1.1490    -1.2340 ho         1 0M6       0.448000
     47 H23         -4.5310     2.0820    -0.8170 hc         1 0M6       0.068200
     48 H24         -5.3660     2.3500     0.7100 hc         1 0M6       0.068200
     49 H25         -3.1710     2.9360     1.7980 h1         1 0M6       0.020700
     50 H26         -2.3620     2.7400     0.2280 h1         1 0M6       0.020700
     51 H27         -2.9590     4.9350     0.6490 ho         1 0M6       0.445000
@<TRIPOS>BOND
     1     1     2 ar  
     2     1     6 ar  
     3     1    25 1   
     4     2     3 ar  
     5     2    26 1   
     6     3     4 ar  
     7     3    27 1   
     8     4     5 ar  
     9     4    28 1   
    10     5     6 ar  
    11     5    29 1   
    12     6     7 1   
    13     7     8 1   
    14     7    30 1   
    15     8     9 2   
    16     8    10 1   
    17    10    11 1   
    18    10    31 1   
    19    11    12 1   
    20    11    16 1   
    21    11    32 1   
    22    12    13 1   
    23    12    33 1   
    24    12    34 1   
    25    13    14 1   
    26    13    15 1   
    27    13    35 1   
    28    14    36 1   
    29    14    37 1   
    30    14    38 1   
    31    15    39 1   
    32    15    40 1   
    33    15    41 1   
    34    16    17 2   
    35    16    18 1   
    36    18    19 1   
    37    18    42 1   
    38    19    20 1   
    39    19    22 1   
    40    19    43 1   
    41    20    21 1   
    42    20    44 1   
    43    20    45 1   
    44    21    46 1   
    45    22    23 1   
    46    22    47 1   
    47    22    48 1   
    48    23    24 1   
    49    23    49 1   
    50    23    50 1   
    51    24    51 1   
@<TRIPOS>SUBSTRUCTURE
     1 0M6         1 TEMP              0 ****  ****    0 ROOT
