@<TRIPOS>MOLECULE
0M6
   51    51     1     0     0
SMALL
abcg2


@<TRIPOS>ATOM
      1 CAK          4.5970     1.5310    -0.4570 ca         1 0M6      -0.106500
      2 CAI          5.9220     1.7760    -0.7850 ca         1 0M6      -0.098500
      3 CAH          6.9420     1.0250    -0.2110 ca         1 0M6      -0.111000
      4 CAJ          6.6280     0.0260     0.6980 ca         1 0M6      -0.098500
      5 CAL          5.3020    -0.2350     1.0190 ca         1 0M6      -0.106500
      6 CAV          4.2830     0.5130     0.4390 ca         1 0M6       0.056600
      7 NAP          2.9540     0.2610     0.8310 ns         1 0M6      -0.371100
      8 CAU          1.9010     0.0150     0.0180 cs         1 0M6       0.484400
      9 SAG          2.0280    -0.0800    -1.6550 s          1 0M6      -0.665400
     10 N            0.7420    -0.1560     0.6620 ns         1 0M6      -0.447900
     11 CA          -0.4990    -0.5370     0.0310 c3         1 0M6       0.035700
     12 CB          -0.5990    -2.0640    -0.1090 c3         1 0M6      -0.092400
     13 CG          -1.7500    -2.5910    -0.9680 c3         1 0M6      -0.059700
     14 CD2         -1.6340    -2.1280    -2.4190 c3         1 0M6      -0.089100
     15 CD1         -1.7710    -4.1150    -0.9010 c3         1 0M6      -0.089100
     16 C           -1.6330    -0.0020     0.8990 c          1 0M6       0.591100
     17 O           -1.5230     0.0480     2.1170 o          1 0M6      -0.627100
     18 NAQ         -2.7310     0.3700     0.2340 ns         1 0M6      -0.485900
     19 CAZ         -3.9730     0.7640     0.8800 c3         1 0M6       0.113700
     20 CAX         -4.8160    -0.4520     1.2380 c3         1 0M6       0.140600
     21 OAF         -5.1570    -1.1400     0.0580 oh         1 0M6      -0.665000
     22 CAN         -4.7210     1.7600     0.0000 c3         1 0M6      -0.092400
     23 CAM         -3.9580     3.0580    -0.1880 c3         1 0M6       0.162600
     24 OAE         -4.7530     3.9330    -0.9590 oh         1 0M6      -0.662000
     25 H1           3.8110     2.1330    -0.8900 ha         1 0M6       0.124000
     26 H2           6.1570     2.5680    -1.4830 ha         1 0M6       0.116500
     27 H3           7.9740     1.2240    -0.4680 ha         1 0M6       0.116000
     28 H4           7.4120    -0.5640     1.1530 ha         1 0M6       0.116500
     29 H5           5.0590    -1.0260     1.7180 ha         1 0M6       0.124000
     30 H6           2.8170     0.1120     1.8210 hn         1 0M6       0.310500
     31 H7           0.7220    -0.1080     1.6730 hn         1 0M6       0.327500
     32 H8          -0.5210    -0.0730    -0.9560 h1         1 0M6       0.110700
     33 H9           0.3440    -2.4040    -0.5460 hc         1 0M6       0.060200
     34 H10         -0.6570    -2.4980     0.8940 hc         1 0M6       0.060200
     35 H11         -2.7020    -2.2300    -0.5650 hc         1 0M6       0.049700
     36 H12         -2.4320    -2.5580    -3.0260 hc         1 0M6       0.036533
     37 H13         -1.7010    -1.0440    -2.5280 hc         1 0M6       0.036533
     38 H14         -0.6800    -2.4380    -2.8500 hc         1 0M6       0.036533
     39 H15         -1.8990    -4.4680     0.1230 hc         1 0M6       0.036533
     40 H16         -2.5880    -4.5230    -1.4980 hc         1 0M6       0.036533
     41 H17         -0.8380    -4.5380    -1.2840 hc         1 0M6       0.036533
     42 H18         -2.7520     0.2460    -0.7660 hn         1 0M6       0.329500
     43 H19         -3.7120     1.2560     1.8200 h1         1 0M6       0.078700
     44 H20         -4.2460    -1.0890     1.9260 h1         1 0M6       0.034200
     45 H21         -5.7050    -0.1060     1.7830 h1         1 0M6       0.034200
     46 H22         -5.5180    -1.9970     0.3010 ho         1 0M6       0.448000
     47 H23         -4.9430     1.3130    -0.9730 hc         1 0M6       0.068200
     48 H24         -5.6810     1.9750     0.4770 hc         1 0M6       0.068200
     49 H25         -3.7280     3.4860     0.7980 h1         1 0M6       0.020700
     50 H26         -2.9960     2.8610    -0.6770 h1         1 0M6       0.020700
     51 H27         -4.2590     4.7460    -1.0920 ho         1 0M6       0.445000
@<TRIPOS>BOND
     1     1     2 ar  
     2     1     6 ar  
     3     1    25 1   
     4     2     3 ar  
     5     2    26 1   
     6     3     4 ar  
     7     3    27 1   
     8     4     5 ar  
     9     4    28 1   
    10     5     6 ar  
    11     5    29 1   
    12     6     7 1   
    13     7     8 1   
    14     7    30 1   
    15     8     9 2   
    16     8    10 1   
    17    10    11 1   
    18    10    31 1   
    19    11    12 1   
    20    11    16 1   
    21    11    32 1   
    22    12    13 1   
    23    12    33 1   
    24    12    34 1   
    25    13    14 1   
    26    13    15 1   
    27    13    35 1   
    28    14    36 1   
    29    14    37 1   
    30    14    38 1   
    31    15    39 1   
    32    15    40 1   
    33    15    41 1   
    34    16    17 2   
    35    16    18 1   
    36    18    19 1   
    37    18    42 1   
    38    19    20 1   
    39    19    22 1   
    40    19    43 1   
    41    20    21 1   
    42    20    44 1   
    43    20    45 1   
    44    21    46 1   
    45    22    23 1   
    46    22    47 1   
    47    22    48 1   
    48    23    24 1   
    49    23    49 1   
    50    23    50 1   
    51    24    51 1   
@<TRIPOS>SUBSTRUCTURE
     1 0M6         1 TEMP              0 ****  ****    0 ROOT
