@<TRIPOS>MOLECULE
0M7
   31    30     1     0     0
SMALL
bcc


@<TRIPOS>ATOM
      1 O11          0.6330    -1.7550    -1.0110 o          1 0M7      -0.978000
      2 P3           1.7720    -1.6470     0.0330 p5         1 0M7       1.218200
      3 O13          1.5910    -2.6700     1.1760 o          1 0M7      -0.978000
      4 O12          3.1680    -1.7270    -0.5990 o          1 0M7      -0.978000
      5 C2           1.6040     0.0180     0.8510 c3         1 0M7      -0.405100
      6 P1           2.1640     1.5190    -0.1000 p5         1 0M7       1.218200
      7 O15          1.6040     1.4420    -1.5280 o          1 0M7      -0.978000
      8 O14          1.6020     2.7250     0.6890 o          1 0M7      -0.978000
      9 O16          3.7030     1.4940    -0.0560 o          1 0M7      -0.978000
     10 C4           0.2020     0.1760     1.4360 c3         1 0M7       0.261800
     11 N5          -0.8170     0.2780     0.4080 n7         1 0M7      -0.806200
     12 C6          -2.1470     0.0340     0.9060 c3         1 0M7       0.207800
     13 C7          -3.1910     0.1240    -0.1980 c3         1 0M7      -0.085400
     14 C8          -4.6160    -0.0560     0.3090 c3         1 0M7      -0.072400
     15 C9          -5.6650     0.0340    -0.7920 c3         1 0M7      -0.080400
     16 C10         -7.0880    -0.1240    -0.2740 c3         1 0M7      -0.081100
     17 H3           2.2810    -0.0220     1.7180 hc         1 0M7       0.011700
     18 H6           0.0040    -0.6810     2.1070 h1         1 0M7      -0.047300
     19 H7           0.1640     1.0750     2.0630 h1         1 0M7      -0.047300
     20 H8          -0.5650    -0.4180    -0.2970 hn         1 0M7       0.453800
     21 H10         -2.2440    -0.9450     1.4140 h1         1 0M7      -0.042300
     22 H11         -2.3810     0.7820     1.6750 h1         1 0M7      -0.042300
     23 H12         -3.1000     1.0950    -0.6960 hc         1 0M7       0.050700
     24 H13         -2.9780    -0.6330    -0.9610 hc         1 0M7       0.050700
     25 H14         -4.7050    -1.0230     0.8170 hc         1 0M7       0.013200
     26 H15         -4.8260     0.7030     1.0700 hc         1 0M7       0.013200
     27 H16         -5.5680     0.9970    -1.3040 hc         1 0M7       0.034200
     28 H17         -5.4640    -0.7310    -1.5480 hc         1 0M7       0.034200
     29 H18         -7.2290    -1.0960     0.2030 hc         1 0M7       0.004033
     30 H19         -7.3250     0.6420     0.4680 hc         1 0M7       0.004033
     31 H20         -7.8200    -0.0410    -1.0780 hc         1 0M7       0.004033
@<TRIPOS>BOND
     1     1     2 1   
     2     2     3 1   
     3     2     4 1   
     4     2     5 1   
     5     5     6 1   
     6     5    10 1   
     7     5    17 1   
     8     6     7 1   
     9     6     8 1   
    10     6     9 1   
    11    10    11 1   
    12    10    18 1   
    13    10    19 1   
    14    11    12 1   
    15    11    20 1   
    16    12    13 1   
    17    12    21 1   
    18    12    22 1   
    19    13    14 1   
    20    13    23 1   
    21    13    24 1   
    22    14    15 1   
    23    14    25 1   
    24    14    26 1   
    25    15    16 1   
    26    15    27 1   
    27    15    28 1   
    28    16    29 1   
    29    16    30 1   
    30    16    31 1   
@<TRIPOS>SUBSTRUCTURE
     1 0M7         1 TEMP              0 ****  ****    0 ROOT
