@<TRIPOS>MOLECULE
0M7
   31    30     1     0     0
SMALL
No Charge or Current Charge


@<TRIPOS>ATOM
      1 O11          0.3410    -1.5370    -0.9290 o          1 0M7      -0.978000
      2 P3           1.5600    -1.5020    -0.0670 p5         1 0M7       1.376000
      3 O13          1.4300    -2.6070     0.9270 o          1 0M7      -0.978000
      4 O12          2.7940    -1.7360    -0.8700 o          1 0M7      -0.978000
      5 C2           1.5660     0.0100     0.8820 c3         1 0M7      -0.720700
      6 P1           2.2770     1.3110    -0.1200 p5         1 0M7       1.376000
      7 O15          1.7440     1.3670    -1.5130 o          1 0M7      -0.978000
      8 O14          2.0020     2.6100     0.5640 o          1 0M7      -0.978000
      9 O16          3.7630     1.1620    -0.1350 o          1 0M7      -0.978000
     10 C4           0.2410     0.3150     1.5550 c3         1 0M7       0.261800
     11 N5          -0.8070     0.4380     0.5680 n7         1 0M7      -0.861400
     12 C6          -2.1590     0.1540     1.0450 c3         1 0M7       0.207800
     13 C7          -3.1730     0.2280    -0.1170 c3         1 0M7      -0.085400
     14 C8          -4.6210    -0.0740     0.3290 c3         1 0M7      -0.072400
     15 C9          -5.6410    -0.0000    -0.8280 c3         1 0M7      -0.080400
     16 C10         -7.0850    -0.3000    -0.3820 c3         1 0M7      -0.081100
     17 H3           2.2950    -0.1520     1.6800 hc         1 0M7       0.011700
     18 H6           0.0100    -0.5190     2.2300 h1         1 0M7      -0.047300
     19 H7           0.3050     1.2220     2.1680 h1         1 0M7      -0.047300
     20 H8          -0.5540    -0.3120    -0.1100 hn         1 0M7       0.509000
     21 H10         -2.1930    -0.8510     1.4840 h1         1 0M7      -0.042300
     22 H11         -2.4420     0.8780     1.8200 h1         1 0M7      -0.042300
     23 H12         -3.1360     1.2280    -0.5650 hc         1 0M7       0.050700
     24 H13         -2.8800    -0.4870    -0.8960 hc         1 0M7       0.050700
     25 H14         -4.6580    -1.0740     0.7790 hc         1 0M7       0.013200
     26 H15         -4.9120     0.6400     1.1110 hc         1 0M7       0.013200
     27 H16         -5.6080     0.9990    -1.2790 hc         1 0M7       0.034200
     28 H17         -5.3550    -0.7140    -1.6110 hc         1 0M7       0.034200
     29 H18         -7.1580    -1.3090     0.0420 hc         1 0M7       0.004033
     30 H19         -7.4140     0.4200     0.3760 hc         1 0M7       0.004033
     31 H20         -7.7690    -0.2360    -1.2360 hc         1 0M7       0.004033
@<TRIPOS>BOND
     1     1     2 1   
     2     2     3 1   
     3     2     4 1   
     4     2     5 1   
     5     5     6 1   
     6     5    10 1   
     7     5    17 1   
     8     6     7 1   
     9     6     8 1   
    10     6     9 1   
    11    10    11 1   
    12    10    18 1   
    13    10    19 1   
    14    11    12 1   
    15    11    20 1   
    16    12    13 1   
    17    12    21 1   
    18    12    22 1   
    19    13    14 1   
    20    13    23 1   
    21    13    24 1   
    22    14    15 1   
    23    14    25 1   
    24    14    26 1   
    25    15    16 1   
    26    15    27 1   
    27    15    28 1   
    28    16    29 1   
    29    16    30 1   
    30    16    31 1   
@<TRIPOS>SUBSTRUCTURE
     1 0M7         1 TEMP              0 ****  ****    0 ROOT
