@<TRIPOS>MOLECULE
0M8
   37    36     1     0     0
SMALL
No Charge or Current Charge


@<TRIPOS>ATOM
      1 O1           3.5250    -1.7740    -1.0900 o          1 0M8      -0.977667
      2 P1           2.3580    -1.5410    -0.1930 p5         1 0M8       1.375000
      3 O2           1.0790    -1.5240    -0.9640 o          1 0M8      -0.977667
      4 O3           2.2760    -2.6730     0.7760 o          1 0M8      -0.977667
      5 C9           2.4660    -0.0590     0.7970 c3         1 0M8      -0.720700
      6 P2           3.1320     1.2580    -0.2150 p5         1 0M8       1.375000
      7 O5           2.9360     2.5400     0.5260 o          1 0M8      -0.977667
      8 O4           4.6090     1.0800    -0.3420 o          1 0M8      -0.977667
      9 O6           2.5010     1.3680    -1.5630 o          1 0M8      -0.977667
     10 C8           1.2010     0.2510     1.5740 c3         1 0M8       0.261800
     11 N1           0.0870     0.4250     0.6710 n7         1 0M8      -0.861400
     12 C7          -1.2330     0.1540     1.2360 c3         1 0M8       0.207800
     13 C6          -2.3270     0.2850     0.1550 c3         1 0M8      -0.085400
     14 C5          -3.7450    -0.0010     0.6980 c3         1 0M8      -0.071400
     15 C4          -4.8450     0.1300    -0.3780 c3         1 0M8      -0.077400
     16 C3          -6.2620    -0.1550     0.1670 c3         1 0M8      -0.075400
     17 C2          -7.3620    -0.0230    -0.9080 c3         1 0M8      -0.079400
     18 C1          -8.7760    -0.3070    -0.3650 c3         1 0M8      -0.084100
     19 H3           3.2470    -0.2600     1.5350 hc         1 0M8       0.011700
     20 H6           1.0010    -0.5980     2.2400 h1         1 0M8      -0.047300
     21 H7           1.3290     1.1380     2.2070 h1         1 0M8      -0.047300
     22 H8           0.2740    -0.3070    -0.0460 hn         1 0M8       0.510000
     23 H10         -1.2570    -0.8640     1.6460 h1         1 0M8      -0.042300
     24 H11         -1.4430     0.8580     2.0520 h1         1 0M8      -0.042300
     25 H12         -2.3000     1.2980    -0.2640 hc         1 0M8       0.051700
     26 H13         -2.1080    -0.4110    -0.6640 hc         1 0M8       0.051700
     27 H14         -3.7710    -1.0140     1.1180 hc         1 0M8       0.013700
     28 H15         -3.9610     0.6930     1.5200 hc         1 0M8       0.013700
     29 H16         -4.8190     1.1440    -0.7980 hc         1 0M8       0.035200
     30 H17         -4.6300    -0.5640    -1.2000 hc         1 0M8       0.035200
     31 H18         -6.2890    -1.1680     0.5880 hc         1 0M8       0.025200
     32 H19         -6.4780     0.5390     0.9890 hc         1 0M8       0.025200
     33 H20         -7.3400     0.9900    -1.3300 hc         1 0M8       0.033700
     34 H21         -7.1510    -0.7170    -1.7310 hc         1 0M8       0.033700
     35 H22         -9.0310     0.3950     0.4380 hc         1 0M8       0.013700
     36 H23         -9.5200    -0.2010    -1.1630 hc         1 0M8       0.013700
     37 H24         -8.8410    -1.3270     0.0330 hc         1 0M8       0.013700
@<TRIPOS>BOND
     1     1     2 1   
     2     2     3 1   
     3     2     4 1   
     4     2     5 1   
     5     5     6 1   
     6     5    10 1   
     7     5    19 1   
     8     6     7 1   
     9     6     8 1   
    10     6     9 1   
    11    10    11 1   
    12    10    20 1   
    13    10    21 1   
    14    11    12 1   
    15    11    22 1   
    16    12    13 1   
    17    12    23 1   
    18    12    24 1   
    19    13    14 1   
    20    13    25 1   
    21    13    26 1   
    22    14    15 1   
    23    14    27 1   
    24    14    28 1   
    25    15    16 1   
    26    15    29 1   
    27    15    30 1   
    28    16    17 1   
    29    16    31 1   
    30    16    32 1   
    31    17    18 1   
    32    17    33 1   
    33    17    34 1   
    34    18    35 1   
    35    18    36 1   
    36    18    37 1   
@<TRIPOS>SUBSTRUCTURE
     1 0M8         1 TEMP              0 ****  ****    0 ROOT
