@<TRIPOS>MOLECULE
0M8
   37    36     1     0     0
SMALL
abcg2


@<TRIPOS>ATOM
      1 O1           3.9380    -1.7250    -0.8380 o          1 0M8      -0.977667
      2 P1           2.5890    -1.6590    -0.1110 p5         1 0M8       1.375000
      3 O2           1.3820    -1.7110    -1.0820 o          1 0M8      -0.977667
      4 O3           2.4680    -2.7290     0.9950 o          1 0M8      -0.977667
      5 C9           2.4930    -0.0300     0.7890 c3         1 0M8      -0.720700
      6 P2           3.0190     1.5020    -0.1300 p5         1 0M8       1.375000
      7 O5           2.5260     2.6830     0.7390 o          1 0M8      -0.977667
      8 O4           4.5590     1.4540    -0.1800 o          1 0M8      -0.977667
      9 O6           2.3760     1.4900    -1.5250 o          1 0M8      -0.977667
     10 C8           1.1310     0.1210     1.4640 c3         1 0M8       0.261800
     11 N1           0.0540     0.2790     0.5040 n7         1 0M8      -0.861400
     12 C7          -1.2450     0.0280     1.0730 c3         1 0M8       0.207800
     13 C6          -2.3520     0.1490     0.0360 c3         1 0M8      -0.085400
     14 C5          -3.7450    -0.0360     0.6240 c3         1 0M8      -0.071400
     15 C4          -4.8580     0.0650    -0.4120 c3         1 0M8      -0.077400
     16 C3          -6.2510    -0.0850     0.1850 c3         1 0M8      -0.075400
     17 C2          -7.3670     0.0160    -0.8470 c3         1 0M8      -0.079400
     18 C1          -8.7540    -0.1440    -0.2390 c3         1 0M8      -0.084100
     19 H3           3.2190    -0.1180     1.6100 hc         1 0M8       0.011700
     20 H6           0.9600    -0.7610     2.1100 h1         1 0M8      -0.047300
     21 H7           1.1440     0.9920     2.1290 h1         1 0M8      -0.047300
     22 H8           0.2560    -0.3920    -0.2420 hn         1 0M8       0.510000
     23 H10         -1.3170    -0.9660     1.5580 h1         1 0M8      -0.042300
     24 H11         -1.4310     0.7540     1.8750 h1         1 0M8      -0.042300
     25 H12         -2.2850     1.1300    -0.4450 hc         1 0M8       0.051700
     26 H13         -2.1890    -0.5930    -0.7550 hc         1 0M8       0.051700
     27 H14         -3.8050    -1.0080     1.1270 hc         1 0M8       0.013700
     28 H15         -3.9090     0.7170     1.4030 hc         1 0M8       0.013700
     29 H16         -4.7880     1.0290    -0.9280 hc         1 0M8       0.035200
     30 H17         -4.7080    -0.7010    -1.1820 hc         1 0M8       0.035200
     31 H18         -6.3220    -1.0490     0.7030 hc         1 0M8       0.025200
     32 H19         -6.4000     0.6810     0.9540 hc         1 0M8       0.025200
     33 H20         -7.3010     0.9820    -1.3580 hc         1 0M8       0.033700
     34 H21         -7.2160    -0.7450    -1.6190 hc         1 0M8       0.033700
     35 H22         -8.9410     0.6160     0.5220 hc         1 0M8       0.013700
     36 H23         -9.5370    -0.0570    -0.9930 hc         1 0M8       0.013700
     37 H24         -8.8630    -1.1200     0.2400 hc         1 0M8       0.013700
@<TRIPOS>BOND
     1     1     2 1   
     2     2     3 1   
     3     2     4 1   
     4     2     5 1   
     5     5     6 1   
     6     5    10 1   
     7     5    19 1   
     8     6     7 1   
     9     6     8 1   
    10     6     9 1   
    11    10    11 1   
    12    10    20 1   
    13    10    21 1   
    14    11    12 1   
    15    11    22 1   
    16    12    13 1   
    17    12    23 1   
    18    12    24 1   
    19    13    14 1   
    20    13    25 1   
    21    13    26 1   
    22    14    15 1   
    23    14    27 1   
    24    14    28 1   
    25    15    16 1   
    26    15    29 1   
    27    15    30 1   
    28    16    17 1   
    29    16    31 1   
    30    16    32 1   
    31    17    18 1   
    32    17    33 1   
    33    17    34 1   
    34    18    35 1   
    35    18    36 1   
    36    18    37 1   
@<TRIPOS>SUBSTRUCTURE
     1 0M8         1 TEMP              0 ****  ****    0 ROOT
