@<TRIPOS>MOLECULE
0M9
   25    24     1     0     0
SMALL
No Charge or Current Charge


@<TRIPOS>ATOM
      1 O1           0.7220     2.5550    -0.8410 o          1 0M9      -0.978333
      2 P1           0.8920     1.4320     0.1270 p5         1 0M9       1.376000
      3 O3           2.2110     1.5910     0.8020 o          1 0M9      -0.978333
      4 O2          -0.2300     1.5190     1.1080 o          1 0M9      -0.978333
      5 C9           0.7220    -0.0650    -0.8300 c3         1 0M9      -0.721700
      6 P2           1.4600    -1.4150     0.0850 p5         1 0M9       1.376000
      7 O4           1.0490    -2.6880    -0.5780 o          1 0M9      -0.978333
      8 O5           2.9450    -1.3440    -0.0490 o          1 0M9      -0.978333
      9 O6           1.0670    -1.4610     1.5240 o          1 0M9      -0.978333
     10 C8          -0.6780    -0.2920    -1.3690 c3         1 0M9       0.259800
     11 N1          -1.6260    -0.3730    -0.2820 n7         1 0M9      -0.861400
     12 C7          -3.0030    -0.0130    -0.6160 c3         1 0M9       0.202800
     13 C6          -3.8930    -0.0450     0.6430 c3         1 0M9      -0.089400
     14 C5          -5.3570     0.3390     0.3550 c3         1 0M9      -0.074100
     15 H3           1.3750     0.0690    -1.6970 hc         1 0M9       0.010700
     16 H6          -0.9310     0.5620    -2.0110 h1         1 0M9      -0.047300
     17 H7          -0.7240    -1.1930    -1.9930 h1         1 0M9      -0.047300
     18 H8          -1.2660     0.3530     0.3730 hn         1 0M9       0.509000
     19 H10         -3.0270     0.9980    -1.0440 h1         1 0M9      -0.040800
     20 H11         -3.4030    -0.7120    -1.3630 h1         1 0M9      -0.040800
     21 H12         -3.8690    -1.0500     1.0810 hc         1 0M9       0.048200
     22 H13         -3.4860     0.6440     1.3940 hc         1 0M9       0.048200
     23 H14         -5.9500     0.3020     1.2770 hc         1 0M9      -0.012967
     24 H15         -5.4180     1.3550    -0.0520 hc         1 0M9      -0.012967
     25 H16         -5.8040    -0.3540    -0.3680 hc         1 0M9      -0.012967
@<TRIPOS>BOND
     1     1     2 1   
     2     2     3 1   
     3     2     4 1   
     4     2     5 1   
     5     5     6 1   
     6     5    10 1   
     7     5    15 1   
     8     6     7 1   
     9     6     8 1   
    10     6     9 1   
    11    10    11 1   
    12    10    16 1   
    13    10    17 1   
    14    11    12 1   
    15    11    18 1   
    16    12    13 1   
    17    12    19 1   
    18    12    20 1   
    19    13    14 1   
    20    13    21 1   
    21    13    22 1   
    22    14    23 1   
    23    14    24 1   
    24    14    25 1   
@<TRIPOS>SUBSTRUCTURE
     1 0M9         1 TEMP              0 ****  ****    0 ROOT
