@<TRIPOS>MOLECULE
0M9
   25    24     1     0     0
SMALL
bcc


@<TRIPOS>ATOM
      1 O1           0.7380     2.6450    -1.0800 o          1 0M9      -0.978333
      2 P1           1.0040     1.6100     0.0350 p5         1 0M9       1.218200
      3 O3           2.4430     1.6810     0.5630 o          1 0M9      -0.978333
      4 O2          -0.0560     1.7070     1.1610 o          1 0M9      -0.978333
      5 C9           0.7670    -0.0460    -0.7840 c3         1 0M9      -0.406100
      6 P2           1.4090    -1.5560     0.0980 p5         1 0M9       1.218200
      7 O4           0.7690    -2.7540    -0.6420 o          1 0M9      -0.978333
      8 O5           2.9370    -1.5370    -0.0880 o          1 0M9      -0.978333
      9 O6           0.9860    -1.4870     1.5730 o          1 0M9      -0.978333
     10 C8          -0.6810    -0.1960    -1.2490 c3         1 0M9       0.259800
     11 N1          -1.6150    -0.3080    -0.1420 n7         1 0M9      -0.806200
     12 C7          -2.9680     0.0140    -0.5220 c3         1 0M9       0.202800
     13 C6          -3.9300    -0.0940     0.6520 c3         1 0M9      -0.089400
     14 C5          -5.3630     0.2510     0.2730 c3         1 0M9      -0.074100
     15 H3           1.3660     0.0040    -1.7050 hc         1 0M9       0.010700
     16 H6          -0.9300     0.6710    -1.8880 h1         1 0M9      -0.047300
     17 H7          -0.7720    -1.0850    -1.8850 h1         1 0M9      -0.047300
     18 H8          -1.2850     0.3610     0.5570 hn         1 0M9       0.453800
     19 H10         -3.0580     1.0250    -0.9650 h1         1 0M9      -0.040800
     20 H11         -3.2950    -0.6750    -1.3120 h1         1 0M9      -0.040800
     21 H12         -3.8860    -1.1090     1.0590 hc         1 0M9       0.048200
     22 H13         -3.5930     0.5710     1.4550 hc         1 0M9       0.048200
     23 H14         -6.0380     0.1540     1.1230 hc         1 0M9      -0.012967
     24 H15         -5.4410     1.2760    -0.0950 hc         1 0M9      -0.012967
     25 H16         -5.7310    -0.4090    -0.5160 hc         1 0M9      -0.012967
@<TRIPOS>BOND
     1     1     2 1   
     2     2     3 1   
     3     2     4 1   
     4     2     5 1   
     5     5     6 1   
     6     5    10 1   
     7     5    15 1   
     8     6     7 1   
     9     6     8 1   
    10     6     9 1   
    11    10    11 1   
    12    10    16 1   
    13    10    17 1   
    14    11    12 1   
    15    11    18 1   
    16    12    13 1   
    17    12    19 1   
    18    12    20 1   
    19    13    14 1   
    20    13    21 1   
    21    13    22 1   
    22    14    23 1   
    23    14    24 1   
    24    14    25 1   
@<TRIPOS>SUBSTRUCTURE
     1 0M9         1 TEMP              0 ****  ****    0 ROOT
