@<TRIPOS>MOLECULE
0MB
   34    36     1     0     0
SMALL
No Charge or Current Charge


@<TRIPOS>ATOM
      1 NJ           1.2350    -1.7300    -0.6360 nc         1 0MB      -0.537100
      2 NK           0.3590     0.2210     0.3100 nd         1 0MB      -0.780000
      3 NL          -4.2320     1.6410    -0.6130 n7         1 0MB      -0.877400
      4 NQ          -1.9660    -0.0720     0.5210 nh         1 0MB      -0.763300
      5 CAA          5.4270     1.1740    -0.0300 ca         1 0MB      -0.095000
      6 CAC          5.2230    -0.1160    -0.5420 ca         1 0MB      -0.125500
      7 CAB          4.3330     1.9160     0.4410 ca         1 0MB      -0.125500
      8 CAE          3.9300    -0.6660    -0.5830 ca         1 0MB      -0.069500
      9 CAD          3.0380     1.3710     0.4010 ca         1 0MB      -0.069500
     10 CAF         -4.9520     0.3570    -0.7480 c3         1 0MB       0.170800
     11 CAG         -3.6330     1.9280     0.7230 c3         1 0MB       0.153800
     12 CAI         -2.1910     1.3570     0.8900 c3         1 0MB       0.185800
     13 SAM         -0.3910    -2.0840    -0.5490 ss         1 0MB      -0.030300
     14 CAN          2.8140     0.0690    -0.1120 ca         1 0MB      -0.132500
     15 CAO          1.4450    -0.5070    -0.1530 cd         1 0MB       0.688500
     16 C9          -3.9990    -0.8560    -0.7370 c3         1 0MB      -0.142400
     17 CAP         -0.7110    -0.5190     0.1570 cc         1 0MB       0.710300
     18 C10         -3.1350    -0.9800     0.5320 c3         1 0MB       0.222800
     19 HAF1        -5.6910     0.2440     0.0580 h1         1 0MB       0.052700
     20 HAF2        -5.5090     0.3420    -1.6960 h1         1 0MB       0.052700
     21 HAG1        -3.5670     3.0150     0.8700 h1         1 0MB       0.055700
     22 HAG2        -4.2740     1.5430     1.5280 h1         1 0MB       0.055700
     23 HAI1        -1.8850     1.5120     1.9340 h1         1 0MB       0.065700
     24 HAI2        -1.5350     1.9920     0.2790 h1         1 0MB       0.065700
     25 H101        -2.8070    -2.0240     0.6280 h1         1 0MB       0.060200
     26 H102        -3.7600    -0.7870     1.4150 h1         1 0MB       0.060200
     27 HAA          6.4280     1.5980     0.0010 ha         1 0MB       0.112000
     28 HAB          4.4880     2.9170     0.8380 ha         1 0MB       0.113500
     29 HAC          6.0700    -0.6940    -0.9080 ha         1 0MB       0.113500
     30 HAD          2.2090     1.9690     0.7740 ha         1 0MB       0.132000
     31 HAE          3.8040    -1.6690    -0.9850 ha         1 0MB       0.132000
     32 H91C        -4.6120    -1.7610    -0.8230 hc         1 0MB       0.057700
     33 H92C        -3.3530    -0.8340    -1.6240 hc         1 0MB       0.057700
     34 HL          -3.4860     1.6770    -1.3190 hn         1 0MB       0.427000
@<TRIPOS>BOND
     1     1    13 1   
     2     1    15 2   
     3     2    15 1   
     4     2    17 2   
     5     3    10 1   
     6     3    11 1   
     7     3    34 1   
     8     4    12 1   
     9     4    17 1   
    10     4    18 1   
    11     5     6 ar  
    12     5     7 ar  
    13     5    27 1   
    14     6     8 ar  
    15     6    29 1   
    16     7     9 ar  
    17     7    28 1   
    18     8    14 ar  
    19     8    31 1   
    20     9    14 ar  
    21     9    30 1   
    22    10    16 1   
    23    10    19 1   
    24    10    20 1   
    25    11    12 1   
    26    11    21 1   
    27    11    22 1   
    28    12    23 1   
    29    12    24 1   
    30    13    17 1   
    31    14    15 1   
    32    16    18 1   
    33    16    32 1   
    34    16    33 1   
    35    18    25 1   
    36    18    26 1   
@<TRIPOS>SUBSTRUCTURE
     1 0MB         1 TEMP              0 ****  ****    0 ROOT
