@<TRIPOS>MOLECULE
0MB
   34    36     1     0     0
SMALL
abcg2


@<TRIPOS>ATOM
      1 NJ           1.1490    -1.7260    -0.5430 nc         1 0MB      -0.537100
      2 NK           0.3090     0.2170     0.3610 nd         1 0MB      -0.780000
      3 NL          -3.9420     1.6630    -0.6510 n7         1 0MB      -0.877400
      4 NQ          -1.9940    -0.0920     0.6990 nh         1 0MB      -0.763300
      5 CAA          5.2530     1.2000    -0.1610 ca         1 0MB      -0.095000
      6 CAC          5.0530    -0.0930    -0.6310 ca         1 0MB      -0.125500
      7 CAB          4.1750     1.9330     0.3170 ca         1 0MB      -0.125500
      8 CAE          3.7840    -0.6500    -0.6210 ca         1 0MB      -0.069500
      9 CAD          2.9040     1.3770     0.3290 ca         1 0MB      -0.069500
     10 CAF         -4.6310     0.4150    -0.9220 c3         1 0MB       0.170800
     11 CAG         -3.5380     1.8670     0.7220 c3         1 0MB       0.153800
     12 CAI         -2.1860     1.2850     1.1370 c3         1 0MB       0.185800
     13 SAM         -0.4690    -2.0760    -0.3700 ss         1 0MB      -0.030300
     14 CAN          2.6970     0.0810    -0.1390 ca         1 0MB      -0.132500
     15 CAO          1.3490    -0.5090    -0.1170 cd         1 0MB       0.688500
     16 C9          -3.8320    -0.8770    -0.7630 c3         1 0MB      -0.142400
     17 CAP         -0.7900    -0.4940     0.3040 cc         1 0MB       0.710300
     18 C10         -3.1320    -0.9890     0.5870 c3         1 0MB       0.222800
     19 HAF1        -5.4980     0.3720    -0.2550 h1         1 0MB       0.052700
     20 HAF2        -5.0320     0.4590    -1.9380 h1         1 0MB       0.052700
     21 HAG1        -3.4770     2.9380     0.9360 h1         1 0MB       0.055700
     22 HAG2        -4.3340     1.4840     1.3660 h1         1 0MB       0.055700
     23 HAI1        -2.0830     1.3570     2.2250 h1         1 0MB       0.065700
     24 HAI2        -1.3870     1.8830     0.7010 h1         1 0MB       0.065700
     25 H101        -2.7920    -2.0130     0.7630 h1         1 0MB       0.060200
     26 H102        -3.8260    -0.7750     1.4030 h1         1 0MB       0.060200
     27 HAA          6.2450     1.6330    -0.1670 ha         1 0MB       0.112000
     28 HAB          4.3250     2.9390     0.6850 ha         1 0MB       0.113500
     29 HAC          5.8890    -0.6690    -1.0040 ha         1 0MB       0.113500
     30 HAD          2.0670     1.9510     0.7040 ha         1 0MB       0.132000
     31 HAE          3.6340    -1.6570    -0.9870 ha         1 0MB       0.132000
     32 H91C        -4.5140    -1.7240    -0.8750 hc         1 0MB       0.057700
     33 H92C        -3.0910    -0.9670    -1.5630 hc         1 0MB       0.057700
     34 HL          -3.1690     1.8020    -1.2900 hn         1 0MB       0.427000
@<TRIPOS>BOND
     1     1    13 1   
     2     1    15 2   
     3     2    15 1   
     4     2    17 2   
     5     3    10 1   
     6     3    11 1   
     7     3    34 1   
     8     4    12 1   
     9     4    17 1   
    10     4    18 1   
    11     5     6 ar  
    12     5     7 ar  
    13     5    27 1   
    14     6     8 ar  
    15     6    29 1   
    16     7     9 ar  
    17     7    28 1   
    18     8    14 ar  
    19     8    31 1   
    20     9    14 ar  
    21     9    30 1   
    22    10    16 1   
    23    10    19 1   
    24    10    20 1   
    25    11    12 1   
    26    11    21 1   
    27    11    22 1   
    28    12    23 1   
    29    12    24 1   
    30    13    17 1   
    31    14    15 1   
    32    16    18 1   
    33    16    32 1   
    34    16    33 1   
    35    18    25 1   
    36    18    26 1   
@<TRIPOS>SUBSTRUCTURE
     1 0MB         1 TEMP              0 ****  ****    0 ROOT
