@<TRIPOS>MOLECULE
0ME
   46    49     1     0     0
SMALL
No Charge or Current Charge


@<TRIPOS>ATOM
      1 C1          -1.0960    -0.8630    -0.4720 ca         1 0ME      -0.135800
      2 C2          -1.8640    -1.4710     0.5430 ca         1 0ME       0.138100
      3 O3          -2.9430    -0.8170     1.0910 os         1 0ME      -0.233200
      4 C4          -1.4080     0.5740    -0.9080 c6         1 0ME       0.020900
      5 C5           0.2470    -2.8950    -0.6410 ca         1 0ME      -0.135000
      6 C6          -0.5020    -3.4830     0.3920 ca         1 0ME      -0.079500
      7 C7          -1.5620    -2.7710     0.9790 ca         1 0ME      -0.122500
      8 C8          -0.0500    -1.5910    -1.0750 ca         1 0ME      -0.077500
      9 C9          -2.8440     0.9590    -0.5500 ca         1 0ME      -0.135800
     10 C10         -3.5290     0.2580     0.4640 ca         1 0ME       0.138100
     11 C11         -4.8290     0.6400     0.8350 ca         1 0ME      -0.122500
     12 C12         -5.4560     1.7200     0.1910 ca         1 0ME      -0.079500
     13 C13         -4.7800     2.4180    -0.8250 ca         1 0ME      -0.135000
     14 C14         -3.4770     2.0410    -1.1940 ca         1 0ME      -0.077500
     15 C15         -0.4330     1.6100    -0.2700 c3         1 0ME       0.104000
     16 N16          0.9900     1.3260    -0.4940 ns         1 0ME      -0.504900
     17 C17          1.8250     0.7200     0.4210 c          1 0ME       0.607100
     18 O18          1.4520     0.4090     1.5430 o          1 0ME      -0.590100
     19 C19          3.2650     0.4680    -0.0540 c6         1 0ME      -0.181700
     20 C20          4.3220     1.3000     0.7200 c6         1 0ME      -0.067400
     21 C21          5.7440     0.9790     0.2000 c6         1 0ME      -0.113400
     22 C22          6.0020    -0.5470     0.1880 c6         1 0ME       0.148800
     23 N23          4.9800    -1.2500    -0.6260 n7         1 0ME      -0.845400
     24 C24          3.5970    -1.0400    -0.1240 c6         1 0ME       0.159800
     25 H1          -1.2820     0.6470    -1.9980 hc         1 0ME       0.059700
     26 H2           1.0600    -3.4490    -1.1040 ha         1 0ME       0.116000
     27 H3          -0.2710    -4.4920     0.7270 ha         1 0ME       0.117000
     28 H4          -2.1580    -3.2310     1.7630 ha         1 0ME       0.131000
     29 H5           0.5380    -1.1440    -1.8730 ha         1 0ME       0.108500
     30 H6          -5.3500     0.0940     1.6170 ha         1 0ME       0.131000
     31 H7          -6.4640     2.0140     0.4770 ha         1 0ME       0.117000
     32 H8          -5.2650     3.2540    -1.3240 ha         1 0ME       0.116000
     33 H9          -2.9580     2.5940    -1.9740 ha         1 0ME       0.108500
     34 H10         -0.6560     2.6040    -0.6820 h1         1 0ME       0.066200
     35 H11         -0.6290     1.6540     0.8100 h1         1 0ME       0.066200
     36 H12          1.3940     1.5600    -1.3930 hn         1 0ME       0.306500
     37 H13          3.3020     0.8310    -1.0910 hc         1 0ME       0.042700
     38 H14          4.1140     2.3740     0.6190 hc         1 0ME       0.053200
     39 H15          4.2630     1.0670     1.7930 hc         1 0ME       0.053200
     40 H16          5.8690     1.3830    -0.8140 hc         1 0ME       0.043200
     41 H17          6.4930     1.4780     0.8290 hc         1 0ME       0.043200
     42 H18          7.0040    -0.7470    -0.2230 h1         1 0ME       0.055200
     43 H19          5.9850    -0.9330     1.2190 h1         1 0ME       0.055200
     44 H20          5.0320    -0.8850    -1.5850 hn         1 0ME       0.399000
     45 H22          3.4950    -1.4860     0.8780 h1         1 0ME       0.067700
     46 H23          2.8810    -1.5510    -0.7850 h1         1 0ME       0.067700
@<TRIPOS>BOND
     1     1     2 ar  
     2     1     4 1   
     3     1     8 ar  
     4     2     3 1   
     5     2     7 ar  
     6     3    10 1   
     7     4     9 1   
     8     4    15 1   
     9     4    25 1   
    10     5     6 ar  
    11     5     8 ar  
    12     5    26 1   
    13     6     7 ar  
    14     6    27 1   
    15     7    28 1   
    16     8    29 1   
    17     9    10 ar  
    18     9    14 ar  
    19    10    11 ar  
    20    11    12 ar  
    21    11    30 1   
    22    12    13 ar  
    23    12    31 1   
    24    13    14 ar  
    25    13    32 1   
    26    14    33 1   
    27    15    16 1   
    28    15    34 1   
    29    15    35 1   
    30    16    17 1   
    31    16    36 1   
    32    17    18 2   
    33    17    19 1   
    34    19    20 1   
    35    19    24 1   
    36    19    37 1   
    37    20    21 1   
    38    20    38 1   
    39    20    39 1   
    40    21    22 1   
    41    21    40 1   
    42    21    41 1   
    43    22    23 1   
    44    22    42 1   
    45    22    43 1   
    46    23    24 1   
    47    23    44 1   
    48    24    45 1   
    49    24    46 1   
@<TRIPOS>SUBSTRUCTURE
     1 0ME         1 TEMP              0 ****  ****    0 ROOT
