@<TRIPOS>MOLECULE
0ME
   46    49     1     0     0
SMALL
abcg2


@<TRIPOS>ATOM
      1 C1          -1.0650    -0.7750    -0.6430 ca         1 0ME      -0.135800
      2 C2          -1.6990    -1.3520     0.4500 ca         1 0ME       0.138100
      3 O3          -2.6680    -0.6800     1.1390 os         1 0ME      -0.233200
      4 C4          -1.3690     0.6520    -0.9920 c6         1 0ME       0.020900
      5 C5           0.2030    -2.8150    -0.9190 ca         1 0ME      -0.135000
      6 C6          -0.4230    -3.3580     0.1960 ca         1 0ME      -0.079500
      7 C7          -1.3870    -2.6340     0.8800 ca         1 0ME      -0.122500
      8 C8          -0.1230    -1.5320    -1.3320 ca         1 0ME      -0.077500
      9 C9          -2.7770     0.9820    -0.5890 ca         1 0ME      -0.135800
     10 C10         -3.3370     0.3210     0.4990 ca         1 0ME       0.138100
     11 C11         -4.6000     0.6490     0.9740 ca         1 0ME      -0.122500
     12 C12         -5.3190     1.6550     0.3470 ca         1 0ME      -0.079500
     13 C13         -4.7860     2.3170    -0.7530 ca         1 0ME      -0.135000
     14 C14         -3.5220     1.9760    -1.2120 ca         1 0ME      -0.077500
     15 C15         -0.4050     1.6190    -0.2650 c3         1 0ME       0.104000
     16 N16          0.9800     1.3240    -0.5140 ns         1 0ME      -0.504900
     17 C17          1.7750     0.6700     0.3560 c          1 0ME       0.607100
     18 O18          1.4070     0.3390     1.4750 o          1 0ME      -0.590100
     19 C19          3.1820     0.3980    -0.1290 c6         1 0ME      -0.181700
     20 C20          4.1820     1.3040     0.6000 c6         1 0ME      -0.067400
     21 C21          5.6110     0.9590     0.1930 c6         1 0ME      -0.113400
     22 C22          5.8860    -0.5280     0.3920 c6         1 0ME       0.148800
     23 N23          4.9230    -1.3940    -0.2700 n7         1 0ME      -0.845400
     24 C24          3.5560    -1.0750     0.0960 c6         1 0ME       0.159800
     25 H1          -1.2490     0.8010    -2.0690 hc         1 0ME       0.059700
     26 H2           0.9430    -3.3880    -1.4610 ha         1 0ME       0.116000
     27 H3          -0.1730    -4.3580     0.5270 ha         1 0ME       0.117000
     28 H4          -1.9000    -3.0580     1.7340 ha         1 0ME       0.131000
     29 H5           0.3650    -1.1030    -2.1980 ha         1 0ME       0.108500
     30 H6          -5.0130     0.1140     1.8200 ha         1 0ME       0.131000
     31 H7          -6.3030     1.9130     0.7140 ha         1 0ME       0.117000
     32 H8          -5.3520     3.0940    -1.2480 ha         1 0ME       0.116000
     33 H9          -3.0990     2.4940    -2.0650 ha         1 0ME       0.108500
     34 H10         -0.6210     2.6370    -0.5940 h1         1 0ME       0.066200
     35 H11         -0.5810     1.5790     0.8090 h1         1 0ME       0.066200
     36 H12          1.3520     1.5610    -1.4190 hn         1 0ME       0.306500
     37 H13          3.2490     0.6080    -1.2040 hc         1 0ME       0.042700
     38 H14          3.9670     2.3530     0.3860 hc         1 0ME       0.053200
     39 H15          4.0660     1.1710     1.6810 hc         1 0ME       0.053200
     40 H16          5.7680     1.2220    -0.8580 hc         1 0ME       0.043200
     41 H17          6.3210     1.5520     0.7750 hc         1 0ME       0.043200
     42 H18          6.8860    -0.7830     0.0360 h1         1 0ME       0.055200
     43 H19          5.8660    -0.7580     1.4640 h1         1 0ME       0.055200
     44 H20          5.0300    -1.3020    -1.2740 hn         1 0ME       0.399000
     45 H22          3.4170    -1.3180     1.1530 h1         1 0ME       0.067700
     46 H23          2.8820    -1.7240    -0.4670 h1         1 0ME       0.067700
@<TRIPOS>BOND
     1     1     2 ar  
     2     1     4 1   
     3     1     8 ar  
     4     2     3 1   
     5     2     7 ar  
     6     3    10 1   
     7     4     9 1   
     8     4    15 1   
     9     4    25 1   
    10     5     6 ar  
    11     5     8 ar  
    12     5    26 1   
    13     6     7 ar  
    14     6    27 1   
    15     7    28 1   
    16     8    29 1   
    17     9    10 ar  
    18     9    14 ar  
    19    10    11 ar  
    20    11    12 ar  
    21    11    30 1   
    22    12    13 ar  
    23    12    31 1   
    24    13    14 ar  
    25    13    32 1   
    26    14    33 1   
    27    15    16 1   
    28    15    34 1   
    29    15    35 1   
    30    16    17 1   
    31    16    36 1   
    32    17    18 2   
    33    17    19 1   
    34    19    20 1   
    35    19    24 1   
    36    19    37 1   
    37    20    21 1   
    38    20    38 1   
    39    20    39 1   
    40    21    22 1   
    41    21    40 1   
    42    21    41 1   
    43    22    23 1   
    44    22    42 1   
    45    22    43 1   
    46    23    24 1   
    47    23    44 1   
    48    24    45 1   
    49    24    46 1   
@<TRIPOS>SUBSTRUCTURE
     1 0ME         1 TEMP              0 ****  ****    0 ROOT
