@<TRIPOS>MOLECULE
0MF
   64    68     1     0     0
SMALL
No Charge or Current Charge


@<TRIPOS>ATOM
      1 C1           2.0220     1.4080    -2.1880 ca         1 0MF      -0.153000
      2 C2           1.5840     2.4860    -1.4100 ca         1 0MF      -0.055000
      3 C3          -4.8810     5.9000    -0.0910 cc         1 0MF      -0.206000
      4 C4           3.0860     0.6080    -1.7470 ca         1 0MF      -0.051000
      5 C5           2.2230     2.7730    -0.1950 ca         1 0MF      -0.214000
      6 C6          -3.7110     5.1630     0.1720 cc         1 0MF      -0.086000
      7 C7          -2.0160    -0.1950     0.0330 ca         1 0MF      -0.226000
      8 C8          -3.8340    -2.2710     0.4830 ca         1 0MF      -0.004000
      9 C9          -5.8780     4.9890    -0.3130 cd         1 0MF       0.165900
     10 C10          3.7220     0.8580    -0.5070 ca         1 0MF      -0.188500
     11 C11          5.0390    -1.3650    -0.3710 cc         1 0MF      -0.296600
     12 C12         -1.5510    -1.5180     0.0930 ca         1 0MF       0.357000
     13 C13         -3.3790     0.1200     0.2080 ca         1 0MF       0.094000
     14 C14         -4.3030    -0.9380     0.4210 ca         1 0MF      -0.268200
     15 C15          3.2980     1.9740     0.2590 ca         1 0MF       0.169100
     16 C16         -2.4720    -2.5620     0.3200 ca         1 0MF       0.053000
     17 C17          4.8600     0.0160    -0.0860 cc         1 0MF       0.363500
     18 C18         -4.0700     3.8430     0.0940 cd         1 0MF       0.029500
     19 C19          6.3380    -1.6190    -0.0710 cd         1 0MF       0.239300
     20 C21         -3.1640     2.6770     0.2980 c          1 0MF       0.560600
     21 C22          0.2940    -2.2210    -1.4360 c6         1 0MF       0.162300
     22 C23          0.8370    -0.9520     0.6210 c6         1 0MF       0.162300
     23 C24          1.6830    -2.9160    -1.3800 c6         1 0MF       0.099500
     24 C25          2.2170    -1.6560     0.6860 c6         1 0MF       0.099500
     25 C26          7.1480    -2.8850    -0.1300 c3         1 0MF      -0.143400
     26 C27          3.5130     3.3060     2.3360 c3         1 0MF       0.146900
     27 N28          5.9650     0.5710     0.3960 nd         1 0MF      -0.331300
     28 N29         -0.1730    -1.7800    -0.0940 nh         1 0MF      -0.766400
     29 N30          2.7100    -2.1200    -0.6490 n          1 0MF      -0.406800
     30 N31         -3.8290     1.4690     0.1580 ns         1 0MF      -0.143000
     31 N32         -5.7700    -0.6970     0.6020 no         1 0MF       0.706200
     32 O33         -6.4020    -1.4960     1.3030 o          1 0MF      -0.410000
     33 O34          4.4400    -3.3810    -1.4560 o          1 0MF      -0.596100
     34 O35         -1.9730     2.7890     0.5720 o          1 0MF      -0.568100
     35 O36         -6.3000     0.2190    -0.0380 o          1 0MF      -0.410000
     36 O37         -5.4110     3.6970    -0.2070 os         1 0MF      -0.226000
     37 O38          6.9260    -0.4920     0.4280 os         1 0MF      -0.070700
     38 O39          3.8990     2.2160     1.4810 os         1 0MF      -0.328100
     39 Cl4         -1.9500    -4.2500     0.4110 cl         1 0MF      -0.168000
     40 H1           1.5400     1.1950    -3.1400 ha         1 0MF       0.130000
     41 H2           0.7560     3.1050    -1.7510 ha         1 0MF       0.118000
     42 H4           3.4280    -0.2000    -2.3900 ha         1 0MF       0.130000
     43 H5           1.8610     3.6160     0.3840 ha         1 0MF       0.121000
     44 H6          -2.7270     5.5700     0.3920 ha         1 0MF       0.159000
     45 H7          -1.2960     0.5860    -0.1770 ha         1 0MF       0.166000
     46 H8          -4.5250    -3.0960     0.6510 ha         1 0MF       0.165000
     47 H9          -6.9260     5.1270    -0.5480 h4         1 0MF       0.063100
     48 H10          0.3640    -1.3510    -2.1050 h1         1 0MF       0.057200
     49 H11         -0.4290    -2.9190    -1.8850 h1         1 0MF       0.057200
     50 H12          0.5010    -0.7430     1.6470 h1         1 0MF       0.057200
     51 H13          0.9580     0.0150     0.1130 h1         1 0MF       0.057200
     52 H14          1.5730    -3.8910    -0.8850 h1         1 0MF       0.066700
     53 H15          2.0210    -3.1070    -2.4080 h1         1 0MF       0.066700
     54 H16          2.9340    -0.9940     1.1840 h1         1 0MF       0.066700
     55 H17          2.1180    -2.5380     1.3340 h1         1 0MF       0.066700
     56 H18          7.2920    -3.2070    -1.1680 hc         1 0MF       0.069700
     57 H19          8.1390    -2.7430     0.3170 hc         1 0MF       0.069700
     58 H20          6.6480    -3.6950     0.4120 hc         1 0MF       0.069700
     59 H21          3.6530     4.2690     1.8270 h1         1 0MF       0.043700
     60 H22          2.4620     3.2140     2.6370 h1         1 0MF       0.043700
     61 H23          4.1270     3.3110     3.2450 h1         1 0MF       0.043700
     62 H24         -4.8190     1.5660    -0.0310 hn         1 0MF       0.210000
     63 C20          4.0790    -2.3680    -0.8750 c          1 0MF       0.657700
     64 H3          -4.9660     6.9820    -0.1110 ha         1 0MF       0.152000
@<TRIPOS>BOND
     1     1     2 ar  
     2     1     4 ar  
     3     1    40 1   
     4     2     5 ar  
     5     2    41 1   
     6     3     6 1   
     7     3     9 2   
     8     3    64 1   
     9     4    10 ar  
    10     4    42 1   
    11     5    15 ar  
    12     5    43 1   
    13     6    18 2   
    14     6    44 1   
    15     7    12 ar  
    16     7    13 ar  
    17     7    45 1   
    18     8    14 ar  
    19     8    16 ar  
    20     8    46 1   
    21     9    36 1   
    22     9    47 1   
    23    10    15 ar  
    24    10    17 1   
    25    11    17 1   
    26    11    19 2   
    27    11    63 1   
    28    12    16 ar  
    29    12    28 1   
    30    13    14 ar  
    31    13    30 1   
    32    14    31 1   
    33    15    38 1   
    34    16    39 1   
    35    17    27 2   
    36    18    20 1   
    37    18    36 1   
    38    19    25 1   
    39    19    37 1   
    40    20    30 1   
    41    20    34 2   
    42    21    23 1   
    43    21    28 1   
    44    21    48 1   
    45    21    49 1   
    46    22    24 1   
    47    22    28 1   
    48    22    50 1   
    49    22    51 1   
    50    23    29 1   
    51    23    52 1   
    52    23    53 1   
    53    24    29 1   
    54    24    54 1   
    55    24    55 1   
    56    25    56 1   
    57    25    57 1   
    58    25    58 1   
    59    26    38 1   
    60    26    59 1   
    61    26    60 1   
    62    26    61 1   
    63    27    37 1   
    64    29    63 1   
    65    30    62 1   
    66    31    32 1   
    67    31    35 1   
    68    33    63 2   
@<TRIPOS>SUBSTRUCTURE
     1 0MF         1 TEMP              0 ****  ****    0 ROOT
