@<TRIPOS>MOLECULE
0MF
   64    68     1     0     0
SMALL
bcc


@<TRIPOS>ATOM
      1 C1           1.6900     2.1670    -1.0420 ca         1 0MF      -0.171000
      2 C2           1.2680     2.6270     0.1950 ca         1 0MF      -0.073000
      3 C3          -5.1910     5.0500    -2.5200 cc         1 0MF      -0.289300
      4 C4           2.8400     1.3970    -1.1150 ca         1 0MF      -0.069000
      5 C5           1.9900     2.3370     1.3450 ca         1 0MF      -0.232000
      6 C6          -3.9910     4.2920    -2.5530 cc         1 0MF      -0.169300
      7 C7          -1.8900    -0.1850    -0.1250 ca         1 0MF      -0.244000
      8 C8          -2.9950    -1.3400     2.1190 ca         1 0MF      -0.022000
      9 C9          -5.9770     4.4670    -1.5790 cd         1 0MF       0.275600
     10 C10          3.5740     1.0790     0.0230 ca         1 0MF      -0.188500
     11 C11          4.7770    -1.0370    -0.8430 cc         1 0MF      -0.427200
     12 C12         -1.2330    -1.2490     0.4780 ca         1 0MF       0.218600
     13 C13         -3.0950     0.3370     0.3510 ca         1 0MF       0.186600
     14 C14         -3.6430    -0.2690     1.5050 ca         1 0MF      -0.268200
     15 C15          3.1470     1.5630     1.2710 ca         1 0MF       0.169100
     16 C16         -1.8150    -1.8240     1.6210 ca         1 0MF      -0.038600
     17 C17          4.7320     0.1850    -0.1080 cc         1 0MF       0.428800
     18 C18         -4.1430     3.3060    -1.6290 cd         1 0MF       0.139200
     19 C19          6.0620    -1.4520    -0.7050 cd         1 0MF       0.349000
     20 C21         -3.2250     2.2340    -1.2380 c          1 0MF       0.627600
     21 C22          0.2200    -1.5380    -1.4380 c6         1 0MF       0.162300
     22 C23          1.1330    -1.3770     0.7860 c6         1 0MF       0.162300
     23 C24          1.4100    -2.3740    -1.8740 c6         1 0MF       0.099500
     24 C25          2.3630    -2.1400     0.3340 c6         1 0MF       0.099500
     25 C26          6.8010    -2.6330    -1.2000 c3         1 0MF      -0.143400
     26 C27          3.4290     1.5810     3.6270 c3         1 0MF       0.123700
     27 N28          5.8920     0.4450     0.4210 nd         1 0MF      -0.331300
     28 N29         -0.0330    -1.7450    -0.0210 nh         1 0MF      -0.628000
     29 N30          2.5710    -1.9940    -1.0940 n          1 0MF      -0.473800
     30 N31         -3.7110     1.4100    -0.2600 ns         1 0MF      -0.469100
     31 N32         -4.8810     0.1530     2.1100 no         1 0MF       0.326200
     32 O33         -5.2100    -0.3420     3.1610 o          1 0MF      -0.220000
     33 O34          3.9270    -1.7900    -2.8930 o          1 0MF      -0.596100
     34 O35         -2.1360     2.1360    -1.7710 o          1 0MF      -0.568100
     35 O36         -5.5620     0.9920     1.5440 o          1 0MF      -0.220000
     36 O37         -5.3520     3.4120    -1.0350 os         1 0MF      -0.314800
     37 O38          6.7150    -0.5780     0.0600 os         1 0MF      -0.115100
     38 O39          3.8770     1.2080     2.3370 os         1 0MF      -0.304900
     39 CL4         -1.0960    -3.2050     2.3670 cl         1 0MF      -0.076400
     40 H1           1.1280     2.3930    -1.9380 ha         1 0MF       0.148000
     41 H2           0.3660     3.2190     0.2760 ha         1 0MF       0.136000
     42 H4           3.1760     1.0340    -2.0790 ha         1 0MF       0.148000
     43 H5           1.6300     2.7080     2.2950 ha         1 0MF       0.139000
     44 H6          -3.1300     4.4560    -3.1800 ha         1 0MF       0.177000
     45 H7          -1.4430     0.2800    -0.9860 ha         1 0MF       0.184000
     46 H8          -3.4370    -1.8130     2.9840 ha         1 0MF       0.183000
     47 H9          -6.9650     4.6880    -1.2090 h4         1 0MF       0.063100
     48 H10          0.4300    -0.4860    -1.6750 h1         1 0MF       0.057200
     49 H11         -0.6590    -1.8450    -2.0070 h1         1 0MF       0.057200
     50 H12          0.9560    -1.6030     1.8360 h1         1 0MF       0.057200
     51 H13          1.3110    -0.2990     0.7050 h1         1 0MF       0.057200
     52 H14          1.1970    -3.4380    -1.7320 h1         1 0MF       0.066700
     53 H15          1.6030    -2.2070    -2.9300 h1         1 0MF       0.066700
     54 H16          3.2300    -1.7920     0.8910 h1         1 0MF       0.066700
     55 H17          2.2350    -3.2030     0.5610 h1         1 0MF       0.066700
     56 H18          7.6310    -2.3330    -1.8410 hc         1 0MF       0.069700
     57 H19          7.2120    -3.2120    -0.3720 hc         1 0MF       0.069700
     58 H20          6.1430    -3.2770    -1.7760 hc         1 0MF       0.069700
     59 H21          3.3970     2.6660     3.7500 h1         1 0MF       0.043700
     60 H22          2.4410     1.1690     3.8480 h1         1 0MF       0.043700
     61 H23          4.1470     1.1690     4.3310 h1         1 0MF       0.043700
     62 H24         -4.6220     1.6300     0.1220 hn         1 0MF       0.376500
     63 C20          3.7280    -1.6520    -1.6930 c          1 0MF       0.724700
     64 H3          -5.4380     5.9140    -3.1140 ha         1 0MF       0.170000
@<TRIPOS>BOND
     1     1     2 ar  
     2     1     4 ar  
     3     1    40 1   
     4     2     5 ar  
     5     2    41 1   
     6     3     6 1   
     7     3     9 2   
     8     3    64 1   
     9     4    10 ar  
    10     4    42 1   
    11     5    15 ar  
    12     5    43 1   
    13     6    18 2   
    14     6    44 1   
    15     7    12 ar  
    16     7    13 ar  
    17     7    45 1   
    18     8    14 ar  
    19     8    16 ar  
    20     8    46 1   
    21     9    36 1   
    22     9    47 1   
    23    10    15 ar  
    24    10    17 1   
    25    11    17 1   
    26    11    19 2   
    27    11    63 1   
    28    12    16 ar  
    29    12    28 1   
    30    13    14 ar  
    31    13    30 1   
    32    14    31 1   
    33    15    38 1   
    34    16    39 1   
    35    17    27 2   
    36    18    20 1   
    37    18    36 1   
    38    19    25 1   
    39    19    37 1   
    40    20    30 1   
    41    20    34 2   
    42    21    23 1   
    43    21    28 1   
    44    21    48 1   
    45    21    49 1   
    46    22    24 1   
    47    22    28 1   
    48    22    50 1   
    49    22    51 1   
    50    23    29 1   
    51    23    52 1   
    52    23    53 1   
    53    24    29 1   
    54    24    54 1   
    55    24    55 1   
    56    25    56 1   
    57    25    57 1   
    58    25    58 1   
    59    26    38 1   
    60    26    59 1   
    61    26    60 1   
    62    26    61 1   
    63    27    37 1   
    64    29    63 1   
    65    30    62 1   
    66    31    32 1   
    67    31    35 1   
    68    33    63 2   
@<TRIPOS>SUBSTRUCTURE
     1 0MF         1 TEMP              0 ****  ****    0 ROOT
