@<TRIPOS>MOLECULE
0MG
   28    27     1     0     0
SMALL
bcc


@<TRIPOS>ATOM
      1 N            1.6450     2.3450     0.4870 n8         1 0MG      -0.865800
      2 CA           1.6580     0.8970     0.4750 c3         1 0MG       0.044500
      3 C2           2.9390     0.3920    -0.1600 c          1 0MG       0.431100
      4 O1           3.6400     1.1180    -0.8250 o          1 0MG      -0.524100
      5 C3           0.4750     0.2290    -0.2530 c3         1 0MG      -0.105400
      6 C4          -0.8750     0.6440     0.3150 c3         1 0MG      -0.094400
      7 C5          -2.0020    -0.1390    -0.3380 c3         1 0MG       0.021300
      8 N2          -3.2850     0.2870     0.1950 nu         1 0MG      -0.392100
      9 C6          -4.4430    -0.2960    -0.0790 cz         1 0MG       0.520300
     10 N3          -4.4890    -1.3630    -0.8680 nv         1 0MG      -0.516200
     11 N4          -5.5670     0.1940     0.4290 nv         1 0MG      -0.516200
     12 C            3.3200    -1.1000     0.0510 c          1 0MG       0.859600
     13 O            2.8070    -1.6490     1.0420 o          1 0MG      -0.792800
     14 OXT          4.1050    -1.5740    -0.7820 o          1 0MG      -0.792800
     15 H            1.6010     2.7040    -0.4600 hn         1 0MG       0.320800
     16 H1           1.6430     0.5500     1.5120 h1         1 0MG       0.096700
     17 H3           0.5150     0.4790    -1.3190 hc         1 0MG       0.063700
     18 H4           0.5750    -0.8560    -0.1790 hc         1 0MG       0.063700
     19 H5          -0.8950     0.4700     1.3950 hc         1 0MG       0.050200
     20 H6          -1.0400     1.7130     0.1540 hc         1 0MG       0.050200
     21 H7          -1.9780     0.0050    -1.4220 h1         1 0MG       0.070200
     22 H8          -1.8570    -1.2040    -0.1410 h1         1 0MG       0.070200
     23 H9          -3.3040     1.1140     0.7710 hn         1 0MG       0.318700
     24 H10         -3.6540    -1.8350    -1.1680 hn         1 0MG       0.323950
     25 H11         -5.3560    -1.8530    -1.0120 hn         1 0MG       0.323950
     26 H12         -6.4560    -0.2380     0.2400 hn         1 0MG       0.323950
     27 H13         -5.5700     1.0320     0.9850 hn         1 0MG       0.323950
     28 H2           0.8100     2.6750     0.9540 hn         1 0MG       0.320800
@<TRIPOS>BOND
     1     1     2 1   
     2     1    15 1   
     3     1    28 1   
     4     2     3 1   
     5     2     5 1   
     6     2    16 1   
     7     3     4 2   
     8     3    12 1   
     9     5     6 1   
    10     5    17 1   
    11     5    18 1   
    12     6     7 1   
    13     6    19 1   
    14     6    20 1   
    15     7     8 1   
    16     7    21 1   
    17     7    22 1   
    18     8     9 2   
    19     8    23 1   
    20     9    10 1   
    21     9    11 1   
    22    10    24 1   
    23    10    25 1   
    24    11    26 1   
    25    11    27 1   
    26    12    13 1   
    27    12    14 1   
@<TRIPOS>SUBSTRUCTURE
     1 0MG         1 TEMP              0 ****  ****    0 ROOT
