@<TRIPOS>MOLECULE
0MH
   64    68     1     0     0
SMALL
bcc


@<TRIPOS>ATOM
      1 C1          -2.4060     2.6750     0.4050 ca         1 0MH      -0.173000
      2 C2          -2.0200     2.9670    -0.8940 ca         1 0MH      -0.076000
      3 C3           6.0000     4.1180     3.3780 cc         1 0MH      -0.167000
      4 C4          -3.4450     1.7820     0.6140 ca         1 0MH      -0.064000
      5 C5          -2.6580     2.3740    -1.9760 ca         1 0MH      -0.229000
      6 C6           4.9170     3.2150     3.2820 cc         1 0MH      -0.069000
      7 C7           1.9350    -0.2250     0.2720 ca         1 0MH      -0.258000
      8 C8           2.8480    -1.4770    -2.0020 ca         1 0MH      -0.014000
      9 C9           6.7070     4.2100     2.2150 cd         1 0MH      -0.096100
     10 C10         -4.1040     1.1810    -0.4530 ca         1 0MH      -0.187500
     11 C11         -5.1150    -0.8930     0.7230 cc         1 0MH      -0.427200
     12 C12          1.0950    -1.1190    -0.3840 ca         1 0MH       0.242600
     13 C13          3.2270     0.0750    -0.1630 ca         1 0MH       0.199600
     14 C14          3.6720    -0.5630    -1.3450 ca         1 0MH      -0.284200
     15 C15         -3.7020     1.4750    -1.7650 ca         1 0MH       0.169100
     16 C16          1.5940    -1.7620    -1.5350 ca         1 0MH      -0.054600
     17 C17         -5.1730     0.2140    -0.1750 cc         1 0MH       0.427800
     18 C18          4.8240     2.6270     2.0490 cd         1 0MH      -0.178700
     19 C19         -6.3650    -1.4220     0.6670 cd         1 0MH       0.353000
     20 C21          3.7840     1.6560     1.6690 c          1 0MH       0.733700
     21 C22         -0.4490    -1.1220     1.4910 c6         1 0MH       0.175800
     22 C23         -1.3010    -1.0150    -0.7510 c6         1 0MH       0.175800
     23 C24         -1.6820    -1.8930     1.9320 c6         1 0MH       0.095500
     24 C25         -2.5450    -1.7690    -0.3260 c6         1 0MH       0.095500
     25 C26         -7.0130    -2.5720     1.3340 c3         1 0MH      -0.143400
     26 C27         -3.9230     1.0270    -4.0860 c3         1 0MH       0.123700
     27 N28         -6.3550     0.3090    -0.7110 nd         1 0MH      -0.332300
     28 N29         -0.1700    -1.4000     0.0920 nh         1 0MH      -0.643000
     29 N30         -2.8130    -1.5620     1.0850 n          1 0MH      -0.470800
     30 N31          4.0280     0.9830     0.5000 ns         1 0MH      -0.478100
     31 N32          4.9680    -0.3470    -1.9280 no         1 0MH       0.330200
     32 O33          5.7440     0.4260    -1.3890 o          1 0MH      -0.225500
     33 O34         -4.2530    -1.4530     2.8250 o          1 0MH      -0.598100
     34 O35          2.8060     1.4900     2.3700 o          1 0MH      -0.567100
     35 O36          5.2540    -0.9400    -2.9410 o          1 0MH      -0.225500
     36 O37         -7.0900    -0.7160    -0.1980 os         1 0MH      -0.115100
     37 O38         -4.3440     0.8290    -2.7490 os         1 0MH      -0.306900
     38 S39          6.0640     3.2040     0.9970 ss         1 0MH      -0.023800
     39 CL4          0.6880    -3.0110    -2.3120 cl         1 0MH      -0.082400
     40 H1          -1.9050     3.1340     1.2460 ha         1 0MH       0.143000
     41 H2          -1.2090     3.6590    -1.0770 ha         1 0MH       0.134000
     42 H4          -3.7570     1.5520     1.6250 ha         1 0MH       0.148000
     43 H5          -2.3260     2.6170    -2.9750 ha         1 0MH       0.140000
     44 H6           4.2360     2.9990     4.0920 ha         1 0MH       0.170000
     45 H7           1.5710     0.2780     1.1500 ha         1 0MH       0.184000
     46 H8           3.2140    -1.9920    -2.8780 ha         1 0MH       0.181000
     47 H9           7.5690     4.8240     2.0070 h4         1 0MH       0.175000
     48 H10         -0.6090    -0.0500     1.6740 h1         1 0MH       0.058950
     49 H11          0.3920    -1.4490     2.1020 h1         1 0MH       0.058950
     50 H12         -1.1020    -1.2350    -1.7970 h1         1 0MH       0.058950
     51 H13         -1.4670     0.0660    -0.6670 h1         1 0MH       0.058950
     52 H14         -1.4820    -2.9680     1.8800 h1         1 0MH       0.066200
     53 H15         -1.9080    -1.6430     2.9650 h1         1 0MH       0.066200
     54 H16         -3.3890    -1.4530    -0.9340 h1         1 0MH       0.066200
     55 H17         -2.3950    -2.8390    -0.5070 h1         1 0MH       0.066200
     56 H18         -7.8030    -2.2330     2.0060 hc         1 0MH       0.070367
     57 H19         -7.4630    -3.2440     0.6030 hc         1 0MH       0.070367
     58 H20         -6.2890    -3.1310     1.9200 hc         1 0MH       0.070367
     59 H21         -4.0590     2.0620    -4.4060 h1         1 0MH       0.044033
     60 H22         -2.8770     0.7450    -4.2300 h1         1 0MH       0.044033
     61 H23         -4.5480     0.3850    -4.7010 h1         1 0MH       0.044033
     62 H24          4.9340     1.0980     0.0630 hn         1 0MH       0.365500
     63 C20         -4.0260    -1.3330     1.6290 c          1 0MH       0.722700
     64 H3           6.2440     4.6800     4.2680 ha         1 0MH       0.161000
@<TRIPOS>BOND
     1     1     2 ar  
     2     1     4 ar  
     3     1    40 1   
     4     2     5 ar  
     5     2    41 1   
     6     3     6 1   
     7     3     9 2   
     8     3    64 1   
     9     4    10 ar  
    10     4    42 1   
    11     5    15 ar  
    12     5    43 1   
    13     6    18 2   
    14     6    44 1   
    15     7    12 ar  
    16     7    13 ar  
    17     7    45 1   
    18     8    14 ar  
    19     8    16 ar  
    20     8    46 1   
    21     9    38 1   
    22     9    47 1   
    23    10    15 ar  
    24    10    17 1   
    25    11    17 1   
    26    11    19 2   
    27    11    63 1   
    28    12    16 ar  
    29    12    28 1   
    30    13    14 ar  
    31    13    30 1   
    32    14    31 1   
    33    15    37 1   
    34    16    39 1   
    35    17    27 2   
    36    18    20 1   
    37    18    38 1   
    38    19    25 1   
    39    19    36 1   
    40    20    30 1   
    41    20    34 2   
    42    21    23 1   
    43    21    28 1   
    44    21    48 1   
    45    21    49 1   
    46    22    24 1   
    47    22    28 1   
    48    22    50 1   
    49    22    51 1   
    50    23    29 1   
    51    23    52 1   
    52    23    53 1   
    53    24    29 1   
    54    24    54 1   
    55    24    55 1   
    56    25    56 1   
    57    25    57 1   
    58    25    58 1   
    59    26    37 1   
    60    26    59 1   
    61    26    60 1   
    62    26    61 1   
    63    27    36 1   
    64    29    63 1   
    65    30    62 1   
    66    31    32 1   
    67    31    35 1   
    68    33    63 2   
@<TRIPOS>SUBSTRUCTURE
     1 0MH         1 TEMP              0 ****  ****    0 ROOT
