@<TRIPOS>MOLECULE
0MH
   64    68     1     0     0
SMALL
No Charge or Current Charge


@<TRIPOS>ATOM
      1 C1          -2.5180     2.3180     0.8250 ca         1 0MH      -0.155000
      2 C2          -2.1750     3.0000    -0.3480 ca         1 0MH      -0.058000
      3 C3           6.1260     4.7060     2.6410 cc         1 0MH      -0.149000
      4 C4          -3.5170     1.3330     0.8000 ca         1 0MH      -0.046000
      5 C5          -2.8400     2.7020    -1.5470 ca         1 0MH      -0.211000
      6 C6           5.0440     3.7980     2.7450 cc         1 0MH      -0.051000
      7 C7           2.0300    -0.2350     0.3310 ca         1 0MH      -0.240000
      8 C8           3.2070    -2.0730    -1.4170 ca         1 0MH       0.004000
      9 C9           6.9250     4.4910     1.5470 cd         1 0MH      -0.223000
     10 C10         -4.1780     0.9940    -0.4040 ca         1 0MH      -0.187500
     11 C11         -5.3260    -1.1570     0.4610 cc         1 0MH      -0.296600
     12 C12          1.2650    -1.3000    -0.1680 ca         1 0MH       0.381000
     13 C13          3.3870    -0.0710    -0.0170 ca         1 0MH       0.107000
     14 C14          3.9780    -0.9970    -0.9180 ca         1 0MH      -0.284200
     15 C15         -3.8490     1.7120    -1.5830 ca         1 0MH       0.169100
     16 C16          1.8640    -2.2260    -1.0480 ca         1 0MH       0.037000
     17 C17         -5.2500    -0.0210    -0.3890 cc         1 0MH       0.362500
     18 C18          5.0060     2.8760     1.7270 cd         1 0MH      -0.323600
     19 C19         -6.6030    -1.6000     0.3420 cd         1 0MH       0.243300
     20 C21          3.9710     1.8210     1.6110 c          1 0MH       0.666700
     21 C22         -0.5100    -1.2240     1.6230 c6         1 0MH       0.175800
     22 C23         -1.1440    -0.9880    -0.7550 c6         1 0MH       0.175800
     23 C24         -1.8660    -1.9200     1.9270 c6         1 0MH       0.095500
     24 C25         -2.4960    -1.6930    -0.4670 c6         1 0MH       0.095500
     25 C26         -7.3160    -2.7710     0.9610 c3         1 0MH      -0.143400
     26 C27         -4.1860     2.0340    -4.0160 c3         1 0MH       0.146900
     27 N28         -6.3950     0.2000    -1.0240 nd         1 0MH      -0.332300
     28 N29         -0.0950    -1.4160     0.2070 nh         1 0MH      -0.781400
     29 N30         -2.9460    -1.5710     0.9570 n          1 0MH      -0.403800
     30 N31          4.1510     1.0070     0.5060 ns         1 0MH      -0.152000
     31 N32          5.4070    -0.8920    -1.3540 no         1 0MH       0.710200
     32 O33          5.9000     0.2340    -1.4910 o          1 0MH      -0.415500
     33 O34         -4.5800    -2.4690     2.2840 o          1 0MH      -0.598100
     34 O35          3.0690     1.6920     2.4290 o          1 0MH      -0.567100
     35 O36          5.9960    -1.9370    -1.6500 o          1 0MH      -0.415500
     36 O37         -7.2740    -0.8370    -0.5690 os         1 0MH      -0.070700
     37 O38         -4.4730     1.3750    -2.7710 os         1 0MH      -0.330100
     38 S39          6.3460     3.1180     0.5860 ss         1 0MH       0.266000
     39 Cl4          0.9590    -3.5990    -1.7030 cl         1 0MH      -0.174000
     40 H1          -2.0170     2.5590     1.7590 ha         1 0MH       0.125000
     41 H2          -1.4000     3.7630    -0.3280 ha         1 0MH       0.116000
     42 H4          -3.7900     0.8510     1.7350 ha         1 0MH       0.130000
     43 H5          -2.5520     3.2500    -2.4390 ha         1 0MH       0.122000
     44 H6           4.3260     3.8460     3.5600 ha         1 0MH       0.152000
     45 H7           1.5400     0.4820     0.9780 ha         1 0MH       0.166000
     46 H8           3.6430    -2.7980    -2.1030 ha         1 0MH       0.163000
     47 H9           7.8080     5.0380     1.2390 h4         1 0MH       0.157000
     48 H10         -0.6130    -0.1500     1.8400 h1         1 0MH       0.058950
     49 H11          0.2530    -1.6260     2.3050 h1         1 0MH       0.058950
     50 H12         -0.8410    -1.2170    -1.7870 h1         1 0MH       0.058950
     51 H13         -1.2870     0.1000    -0.6930 h1         1 0MH       0.058950
     52 H14         -1.7160    -3.0090     1.9090 h1         1 0MH       0.066200
     53 H15         -2.1790    -1.6490     2.9450 h1         1 0MH       0.066200
     54 H16         -3.2480    -1.3230    -1.1720 h1         1 0MH       0.066200
     55 H17         -2.3710    -2.7620    -0.6900 h1         1 0MH       0.066200
     56 H18         -7.4360    -2.6280     2.0410 hc         1 0MH       0.070367
     57 H19         -8.3150    -2.9020     0.5280 hc         1 0MH       0.070367
     58 H20         -6.7570    -3.7000     0.8010 hc         1 0MH       0.070367
     59 H21         -4.4030     3.1080    -3.9490 h1         1 0MH       0.044033
     60 H22         -3.1320     1.9030    -4.2950 h1         1 0MH       0.044033
     61 H23         -4.8030     1.6130    -4.8190 h1         1 0MH       0.044033
     62 H24          4.9720     1.2260    -0.0400 hn         1 0MH       0.199000
     63 C20         -4.2940    -1.7820     1.3130 c          1 0MH       0.655700
     64 H3           6.2910     5.4950     3.3700 ha         1 0MH       0.143000
@<TRIPOS>BOND
     1     1     2 ar  
     2     1     4 ar  
     3     1    40 1   
     4     2     5 ar  
     5     2    41 1   
     6     3     6 1   
     7     3     9 2   
     8     3    64 1   
     9     4    10 ar  
    10     4    42 1   
    11     5    15 ar  
    12     5    43 1   
    13     6    18 2   
    14     6    44 1   
    15     7    12 ar  
    16     7    13 ar  
    17     7    45 1   
    18     8    14 ar  
    19     8    16 ar  
    20     8    46 1   
    21     9    38 1   
    22     9    47 1   
    23    10    15 ar  
    24    10    17 1   
    25    11    17 1   
    26    11    19 2   
    27    11    63 1   
    28    12    16 ar  
    29    12    28 1   
    30    13    14 ar  
    31    13    30 1   
    32    14    31 1   
    33    15    37 1   
    34    16    39 1   
    35    17    27 2   
    36    18    20 1   
    37    18    38 1   
    38    19    25 1   
    39    19    36 1   
    40    20    30 1   
    41    20    34 2   
    42    21    23 1   
    43    21    28 1   
    44    21    48 1   
    45    21    49 1   
    46    22    24 1   
    47    22    28 1   
    48    22    50 1   
    49    22    51 1   
    50    23    29 1   
    51    23    52 1   
    52    23    53 1   
    53    24    29 1   
    54    24    54 1   
    55    24    55 1   
    56    25    56 1   
    57    25    57 1   
    58    25    58 1   
    59    26    37 1   
    60    26    59 1   
    61    26    60 1   
    62    26    61 1   
    63    27    36 1   
    64    29    63 1   
    65    30    62 1   
    66    31    32 1   
    67    31    35 1   
    68    33    63 2   
@<TRIPOS>SUBSTRUCTURE
     1 0MH         1 TEMP              0 ****  ****    0 ROOT
