@<TRIPOS>MOLECULE
0MJ
   64    68     1     0     0
SMALL
No Charge or Current Charge


@<TRIPOS>ATOM
      1 C1          71.4730     9.4710    47.9800 c6         1 0MJ       0.022900
      2 O2          70.2040    10.8140    50.1890 os         1 0MJ      -0.239200
      3 C3          70.0960    10.1370    47.8680 ca         1 0MJ      -0.133800
      4 C4          72.2530    10.0160    49.1780 ca         1 0MJ      -0.133800
      5 C5          69.5150    10.7430    49.0010 ca         1 0MJ       0.134600
      6 C6          71.5670    10.6340    50.2440 ca         1 0MJ       0.134600
      7 C7          71.3710     7.9210    48.1090 c3         1 0MJ       0.104000
      8 C8          73.6530     9.8660    49.2480 ca         1 0MJ      -0.079000
      9 C9          69.3990    10.1550    46.6420 ca         1 0MJ      -0.079000
     10 C10         68.2360    11.3200    48.9200 ca         1 0MJ      -0.121500
     11 C11         72.2710    11.0890    51.3700 ca         1 0MJ      -0.121500
     12 C12         68.1230    10.7380    46.5620 ca         1 0MJ      -0.133500
     13 C13         74.3560    10.3280    50.3750 ca         1 0MJ      -0.133500
     14 C14         67.5360    11.3140    47.7010 ca         1 0MJ      -0.078500
     15 C15         73.6670    10.9370    51.4370 ca         1 0MJ      -0.078500
     16 N16         70.5950     7.2740    47.0430 ns         1 0MJ      -0.503900
     17 C17         69.2820     6.8680    47.1620 c          1 0MJ       0.604100
     18 C18         68.6560     6.2620    45.8960 c6         1 0MJ      -0.177700
     19 C19         68.3510     4.7470    46.0390 c6         1 0MJ      -0.077400
     20 C20         66.5660     5.0510    44.2710 c6         1 0MJ       0.144800
     21 N21         66.9190     6.4960    44.1250 n7         1 0MJ      -0.845400
     22 C22         67.7840     4.1730    44.7120 c6         1 0MJ       0.194500
     23 C23         67.4580     7.0870    45.3760 c6         1 0MJ       0.160800
     24 O24         68.6550     6.9710    48.2050 o          1 0MJ      -0.591100
     25 N25         67.4000     2.7450    44.8660 n7         1 0MJ      -0.920300
     26 S26         68.4850     1.6320    44.2450 sy         1 0MJ       1.186600
     27 O27         68.0490     0.3450    44.7920 o          1 0MJ      -0.554500
     28 O28         68.5330     1.8970    42.8070 o          1 0MJ      -0.554500
     29 C29         70.0350     2.1060    45.0300 ca         1 0MJ      -0.289500
     30 C30         70.3070     1.6950    46.3500 ca         1 0MJ      -0.006500
     31 C31         72.4250     2.9080    46.3000 ca         1 0MJ      -0.019300
     32 C32         72.1550     3.3080    44.9790 ca         1 0MJ      -0.134500
     33 C33         71.4970     2.0980    46.9800 ca         1 0MJ      -0.134500
     34 C34         70.9690     2.9070    44.3410 ca         1 0MJ      -0.006500
     35 C35         73.7030     3.3580    46.9910 c3         1 0MJ      -0.057800
     36 H1          72.0410     9.6780    47.0620 hc         1 0MJ       0.059700
     37 H2          70.9230     7.6800    49.0820 h1         1 0MJ       0.067700
     38 H3          72.3840     7.4980    48.1030 h1         1 0MJ       0.067700
     39 H4          74.1940     9.3870    48.4350 ha         1 0MJ       0.108000
     40 H5          69.8430     9.7110    45.7540 ha         1 0MJ       0.108000
     41 H6          67.7960    11.7830    49.7990 ha         1 0MJ       0.131500
     42 H7          71.7350    11.5650    52.1880 ha         1 0MJ       0.131500
     43 H8          67.5870    10.7430    45.6150 ha         1 0MJ       0.117000
     44 H9          75.4360    10.2100    50.4250 ha         1 0MJ       0.117000
     45 H10         66.5480    11.7640    47.6380 ha         1 0MJ       0.119000
     46 H11         74.2130    11.2920    52.3090 ha         1 0MJ       0.119000
     47 H12         71.0360     7.1330    46.1420 hn         1 0MJ       0.307500
     48 H13         69.4330     6.3350    45.1210 hc         1 0MJ       0.044700
     49 H14         67.6230     4.5910    46.8470 hc         1 0MJ       0.068200
     50 H15         69.2640     4.2240    46.3440 hc         1 0MJ       0.068200
     51 H16         65.7580     4.9460    45.0120 h1         1 0MJ       0.064200
     52 H17         66.1770     4.6770    43.3110 h1         1 0MJ       0.064200
     53 H18         67.6320     6.5840    43.3900 hn         1 0MJ       0.407000
     54 H20         68.5460     4.2800    43.9250 h1         1 0MJ       0.054700
     55 H21         67.7680     8.1280    45.1950 h1         1 0MJ       0.071200
     56 H22         66.6690     7.1100    46.1450 h1         1 0MJ       0.071200
     57 H23         66.6230     2.5380    44.2420 hn         1 0MJ       0.498000
     58 H24         69.5930     1.0800    46.8970 ha         1 0MJ       0.134500
     59 H25         72.8650     3.9350    44.4430 ha         1 0MJ       0.118000
     60 H26         71.6930     1.7860    48.0030 ha         1 0MJ       0.118000
     61 H27         70.7760     3.2320    43.3200 ha         1 0MJ       0.134500
     62 H28         73.5560     4.3220    47.4920 hc         1 0MJ       0.050033
     63 H29         74.0260     2.6330    47.7470 hc         1 0MJ       0.050033
     64 H30         74.5250     3.4740    46.2740 hc         1 0MJ       0.050033
@<TRIPOS>BOND
     1     1     3 1   
     2     1     4 1   
     3     1     7 1   
     4     1    36 1   
     5     2     5 1   
     6     2     6 1   
     7     3     5 ar  
     8     3     9 ar  
     9     4     6 ar  
    10     4     8 ar  
    11     5    10 ar  
    12     6    11 ar  
    13     7    16 1   
    14     7    37 1   
    15     7    38 1   
    16     8    13 ar  
    17     8    39 1   
    18     9    12 ar  
    19     9    40 1   
    20    10    14 ar  
    21    10    41 1   
    22    11    15 ar  
    23    11    42 1   
    24    12    14 ar  
    25    12    43 1   
    26    13    15 ar  
    27    13    44 1   
    28    14    45 1   
    29    15    46 1   
    30    16    17 1   
    31    16    47 1   
    32    17    18 1   
    33    17    24 2   
    34    18    19 1   
    35    18    23 1   
    36    18    48 1   
    37    19    22 1   
    38    19    49 1   
    39    19    50 1   
    40    20    21 1   
    41    20    22 1   
    42    20    51 1   
    43    20    52 1   
    44    21    23 1   
    45    21    53 1   
    46    22    25 1   
    47    22    54 1   
    48    23    55 1   
    49    23    56 1   
    50    25    26 1   
    51    25    57 1   
    52    26    27 2   
    53    26    28 2   
    54    26    29 1   
    55    29    30 ar  
    56    29    34 ar  
    57    30    33 ar  
    58    30    58 1   
    59    31    32 ar  
    60    31    33 ar  
    61    31    35 1   
    62    32    34 ar  
    63    32    59 1   
    64    33    60 1   
    65    34    61 1   
    66    35    62 1   
    67    35    63 1   
    68    35    64 1   
@<TRIPOS>SUBSTRUCTURE
     1 0MJ         1 TEMP              0 ****  ****    0 ROOT
