@<TRIPOS>MOLECULE
0MJ
   64    68     1     0     0
SMALL
abcg2


@<TRIPOS>ATOM
      1 C1          71.3820     9.8010    47.7100 c6         1 0MJ       0.022900
      2 O2          70.3110    10.5090    50.2620 os         1 0MJ      -0.239200
      3 C3          69.9690    10.2920    47.8770 ca         1 0MJ      -0.133800
      4 C4          72.2480    10.3220    48.8260 ca         1 0MJ      -0.133800
      5 C5          69.4890    10.5660    49.1560 ca         1 0MJ       0.134600
      6 C6          71.6710    10.6040    50.0620 ca         1 0MJ       0.134600
      7 C7          71.4410     8.2470    47.7200 c3         1 0MJ       0.104000
      8 C8          73.6290    10.4640    48.6980 ca         1 0MJ      -0.079000
      9 C9          69.0880    10.4170    46.8050 ca         1 0MJ      -0.079000
     10 C10         68.1620    10.9090    49.3790 ca         1 0MJ      -0.121500
     11 C11         72.4400    10.9950    51.1530 ca         1 0MJ      -0.121500
     12 C12         67.7560    10.7610    47.0070 ca         1 0MJ      -0.133500
     13 C13         74.4140    10.8570    49.7750 ca         1 0MJ      -0.133500
     14 C14         67.2920    10.9940    48.2990 ca         1 0MJ      -0.078500
     15 C15         73.8150    11.1150    51.0070 ca         1 0MJ      -0.078500
     16 N16         70.6560     7.6410    46.6690 ns         1 0MJ      -0.503900
     17 C17         69.4500     7.0670    46.8630 c          1 0MJ       0.604100
     18 C18         68.7740     6.5330    45.6140 c6         1 0MJ      -0.177700
     19 C19         68.6840     5.0030    45.6820 c6         1 0MJ      -0.077400
     20 C20         66.5740     5.1260    44.3220 c6         1 0MJ       0.144800
     21 N21         66.6450     6.5820    44.2990 n7         1 0MJ      -0.845400
     22 C22         67.9470     4.4580    44.4600 c6         1 0MJ       0.194500
     23 C23         67.3680     7.1340    45.4430 c6         1 0MJ       0.160800
     24 O24         68.9310     6.9560    47.9750 o          1 0MJ      -0.591100
     25 N25         67.7560     2.9990    44.5580 n7         1 0MJ      -0.920300
     26 S26         68.8410     1.9640    43.9070 sy         1 0MJ       1.186600
     27 O27         68.2140     0.6590    43.9590 o          1 0MJ      -0.554500
     28 O28         69.3320     2.4310    42.6270 o          1 0MJ      -0.554500
     29 C29         70.1910     2.0260    45.0450 ca         1 0MJ      -0.289500
     30 C30         69.9870     1.6220    46.3630 ca         1 0MJ      -0.006500
     31 C31         72.2890     2.1860    46.8730 ca         1 0MJ      -0.019300
     32 C32         72.4690     2.5740    45.5470 ca         1 0MJ      -0.134500
     33 C33         71.0330     1.7030    47.2640 ca         1 0MJ      -0.134500
     34 C34         71.4280     2.4990    44.6290 ca         1 0MJ      -0.006500
     35 C35         73.4040     2.2980    47.8730 c3         1 0MJ      -0.057800
     36 H1          71.7760    10.1370    46.7480 hc         1 0MJ       0.059700
     37 H2          71.0730     7.8730    48.6730 h1         1 0MJ       0.067700
     38 H3          72.4830     7.9420    47.6090 h1         1 0MJ       0.067700
     39 H4          74.0880    10.2520    47.7390 ha         1 0MJ       0.108000
     40 H5          69.4520    10.2230    45.8040 ha         1 0MJ       0.108000
     41 H6          67.8290    11.1110    50.3890 ha         1 0MJ       0.131500
     42 H7          71.9520    11.2070    52.0960 ha         1 0MJ       0.131500
     43 H8          67.0830    10.8390    46.1630 ha         1 0MJ       0.117000
     44 H9          75.4850    10.9590    49.6570 ha         1 0MJ       0.117000
     45 H10         66.2550    11.2570    48.4670 ha         1 0MJ       0.119000
     46 H11         74.4180    11.4200    51.8530 ha         1 0MJ       0.119000
     47 H12         70.9960     7.7210    45.7230 hn         1 0MJ       0.307500
     48 H13         69.3690     6.8090    44.7380 hc         1 0MJ       0.044700
     49 H14         68.1390     4.7080    46.5830 hc         1 0MJ       0.068200
     50 H15         69.6840     4.5740    45.7480 hc         1 0MJ       0.068200
     51 H16         65.9520     4.8230    45.1720 h1         1 0MJ       0.064200
     52 H17         66.0860     4.7780    43.4100 h1         1 0MJ       0.064200
     53 H18         67.0920     6.8840    43.4390 hn         1 0MJ       0.407000
     54 H20         68.5250     4.6810    43.5580 h1         1 0MJ       0.054700
     55 H21         67.4310     8.2160    45.3240 h1         1 0MJ       0.071200
     56 H22         66.7880     6.9340    46.3480 h1         1 0MJ       0.071200
     57 H23         66.8100     2.6580    44.4280 hn         1 0MJ       0.498000
     58 H24         69.0170     1.2620    46.6800 ha         1 0MJ       0.134500
     59 H25         73.4340     2.9450    45.2250 ha         1 0MJ       0.118000
     60 H26         70.8770     1.3920    48.2900 ha         1 0MJ       0.118000
     61 H27         71.5710     2.8120    43.6050 ha         1 0MJ       0.134500
     62 H28         73.2180     3.1280    48.5600 hc         1 0MJ       0.050033
     63 H29         73.4840     1.3920    48.4760 hc         1 0MJ       0.050033
     64 H30         74.3600     2.4760    47.3810 hc         1 0MJ       0.050033
@<TRIPOS>BOND
     1     1     3 1   
     2     1     4 1   
     3     1     7 1   
     4     1    36 1   
     5     2     5 1   
     6     2     6 1   
     7     3     5 ar  
     8     3     9 ar  
     9     4     6 ar  
    10     4     8 ar  
    11     5    10 ar  
    12     6    11 ar  
    13     7    16 1   
    14     7    37 1   
    15     7    38 1   
    16     8    13 ar  
    17     8    39 1   
    18     9    12 ar  
    19     9    40 1   
    20    10    14 ar  
    21    10    41 1   
    22    11    15 ar  
    23    11    42 1   
    24    12    14 ar  
    25    12    43 1   
    26    13    15 ar  
    27    13    44 1   
    28    14    45 1   
    29    15    46 1   
    30    16    17 1   
    31    16    47 1   
    32    17    18 1   
    33    17    24 2   
    34    18    19 1   
    35    18    23 1   
    36    18    48 1   
    37    19    22 1   
    38    19    49 1   
    39    19    50 1   
    40    20    21 1   
    41    20    22 1   
    42    20    51 1   
    43    20    52 1   
    44    21    23 1   
    45    21    53 1   
    46    22    25 1   
    47    22    54 1   
    48    23    55 1   
    49    23    56 1   
    50    25    26 1   
    51    25    57 1   
    52    26    27 2   
    53    26    28 2   
    54    26    29 1   
    55    29    30 ar  
    56    29    34 ar  
    57    30    33 ar  
    58    30    58 1   
    59    31    32 ar  
    60    31    33 ar  
    61    31    35 1   
    62    32    34 ar  
    63    32    59 1   
    64    33    60 1   
    65    34    61 1   
    66    35    62 1   
    67    35    63 1   
    68    35    64 1   
@<TRIPOS>SUBSTRUCTURE
     1 0MJ         1 TEMP              0 ****  ****    0 ROOT
