@<TRIPOS>MOLECULE
0MK
   20    20     1     0     0
SMALL
No Charge or Current Charge


@<TRIPOS>ATOM
      1 C1         -10.3180   -28.9160   -26.0200 c6         1 0MK       0.359300
      2 C2          -9.1760   -29.6170   -26.8340 c6         1 0MK       0.109300
      3 C3          -9.7250   -30.1410   -28.1940 c6         1 0MK       0.139300
      4 C4         -10.5270   -29.0310   -28.9420 c6         1 0MK       0.142300
      5 C5         -11.5570   -28.3490   -27.9900 c6         1 0MK       0.169600
      6 O1          -9.8010   -28.2760   -24.8720 oh         1 0MK      -0.713000
      7 O2          -8.5700   -30.6980   -26.0840 oh         1 0MK      -0.728000
      8 O3         -10.5520   -31.3000   -27.9760 oh         1 0MK      -0.709000
      9 O4         -11.1800   -29.6200   -30.0780 oh         1 0MK      -0.696000
     10 O5         -10.9040   -27.8680   -26.7900 os         1 0MK      -0.481000
     11 H1         -11.0910   -29.6460   -25.7320 h2         1 0MK       0.039700
     12 H2          -8.4170   -28.8520   -27.0570 h1         1 0MK       0.062700
     13 H3          -8.8630   -30.4190   -28.8190 h1         1 0MK       0.044700
     14 H4          -9.8200   -28.2580   -29.2790 h1         1 0MK       0.042700
     15 H51        -12.0280   -27.4990   -28.5030 h1         1 0MK       0.069200
     16 H52        -12.3510   -29.0590   -27.7120 h1         1 0MK       0.069200
     17 HO1        -10.2230   -27.3880   -24.9110 ho         1 0MK       0.523000
     18 HO2         -8.3780   -30.3260   -25.1880 ho         1 0MK       0.528000
     19 HO3        -10.0830   -31.7960   -27.2590 ho         1 0MK       0.520000
     20 HO4        -11.3250   -30.5580   -29.7960 ho         1 0MK       0.508000
@<TRIPOS>BOND
     1     1     2 1   
     2     1     6 1   
     3     1    10 1   
     4     1    11 1   
     5     2     3 1   
     6     2     7 1   
     7     2    12 1   
     8     3     4 1   
     9     3     8 1   
    10     3    13 1   
    11     4     5 1   
    12     4     9 1   
    13     4    14 1   
    14     5    10 1   
    15     5    15 1   
    16     5    16 1   
    17     6    17 1   
    18     7    18 1   
    19     8    19 1   
    20     9    20 1   
@<TRIPOS>SUBSTRUCTURE
     1 0MK         1 TEMP              0 ****  ****    0 ROOT
