@<TRIPOS>MOLECULE
0MK
   20    20     1     0     0
SMALL
bcc


@<TRIPOS>ATOM
      1 C1         -10.2550   -28.7540   -26.0910 c6         1 0MK       0.312900
      2 C2          -9.2110   -29.5650   -26.8560 c6         1 0MK       0.086100
      3 C3          -9.8550   -30.2470   -28.0610 c6         1 0MK       0.116100
      4 C4         -10.5670   -29.1890   -28.9020 c6         1 0MK       0.119100
      5 C5         -11.5270   -28.3830   -28.0340 c6         1 0MK       0.146400
      6 O1          -9.6130   -28.0860   -25.0650 oh         1 0MK      -0.590800
      7 O2          -8.6420   -30.5720   -26.0580 oh         1 0MK      -0.605800
      8 O3         -10.7960   -31.2150   -27.6650 oh         1 0MK      -0.586800
      9 O4         -11.3080   -29.7370   -29.9610 oh         1 0MK      -0.573800
     10 O5         -10.8370   -27.8020   -26.9490 os         1 0MK      -0.434600
     11 H1         -11.0370   -29.4270   -25.7020 h2         1 0MK       0.039700
     12 H2          -8.4460   -28.8630   -27.2250 h1         1 0MK       0.062700
     13 H3          -9.0570   -30.7050   -28.6670 h1         1 0MK       0.044700
     14 H4          -9.7930   -28.5020   -29.2740 h1         1 0MK       0.042700
     15 H51        -11.9600   -27.5650   -28.6110 h1         1 0MK       0.069200
     16 H52        -12.3520   -29.0200   -27.6870 h1         1 0MK       0.069200
     17 HO1        -10.2510   -27.8500   -24.3830 ho         1 0MK       0.424000
     18 HO2         -8.3130   -30.1730   -25.2450 ho         1 0MK       0.429000
     19 HO3        -10.3680   -31.7990   -27.0300 ho         1 0MK       0.421000
     20 HO4        -10.7000   -30.1630   -30.5730 ho         1 0MK       0.409000
@<TRIPOS>BOND
     1     1     2 1   
     2     1     6 1   
     3     1    10 1   
     4     1    11 1   
     5     2     3 1   
     6     2     7 1   
     7     2    12 1   
     8     3     4 1   
     9     3     8 1   
    10     3    13 1   
    11     4     5 1   
    12     4     9 1   
    13     4    14 1   
    14     5    10 1   
    15     5    15 1   
    16     5    16 1   
    17     6    17 1   
    18     7    18 1   
    19     8    19 1   
    20     9    20 1   
@<TRIPOS>SUBSTRUCTURE
     1 0MK         1 TEMP              0 ****  ****    0 ROOT
