@<TRIPOS>MOLECULE
0ML
   31    31     1     0     0
SMALL
bcc


@<TRIPOS>ATOM
      1 N           -3.7260    -1.7710     1.1050 n8         1 0ML      -0.917800
      2 C1          -4.5260    -1.5890    -0.1050 c3         1 0ML       0.151500
      3 C2          -5.1380    -0.1780    -0.0670 c3         1 0ML       0.077100
      4 O1          -6.0740    -0.0290    -1.0940 oh         1 0ML      -0.596800
      5 C3          -5.5960    -2.6630    -0.2710 c3         1 0ML      -0.114100
      6 C4          -4.1050     0.9550    -0.1880 c          1 0ML       0.625100
      7 O2          -4.3690     1.9150    -0.9090 o          1 0ML      -0.633100
      8 N2          -2.9940     0.8250     0.5340 ns         1 0ML      -0.562900
      9 C5          -1.9330     1.8000     0.5800 c3         1 0ML       0.144300
     10 C6          -0.6150     1.2430     0.1050 ca         1 0ML      -0.089300
     11 C7          -0.5410     0.4340    -1.0250 ca         1 0ML      -0.120000
     12 C8           0.6760    -0.0570    -1.4760 ca         1 0ML      -0.099000
     13 C9           1.8350     0.2680    -0.7840 ca         1 0ML       0.059900
     14 I1           3.6860    -0.4760    -1.4550 i          1 0ML      -0.177900
     15 C10          1.7880     1.0700     0.3450 ca         1 0ML      -0.099000
     16 C11          0.5600     1.5490     0.7820 ca         1 0ML      -0.120000
     17 H           -4.3330    -1.9040     1.9060 hn         1 0ML       0.354300
     18 H1          -3.8390    -1.6440    -0.9560 h1         1 0ML       0.068700
     19 H3          -6.3240    -2.6140     0.5420 hc         1 0ML       0.044700
     20 H4          -6.1310    -2.5760    -1.2140 hc         1 0ML       0.044700
     21 H5          -5.1310    -3.6500    -0.2440 hc         1 0ML       0.044700
     22 H6          -2.9010    -0.0650     1.0360 hn         1 0ML       0.363500
     23 H7          -2.2200     2.6510    -0.0400 h1         1 0ML       0.067200
     24 H8          -1.8240     2.1780     1.5990 h1         1 0ML       0.067200
     25 H9          -1.4400     0.1720    -1.5700 ha         1 0ML       0.137500
     26 H10          0.7070    -0.6830    -2.3570 ha         1 0ML       0.145000
     27 H11          2.6860     1.3210     0.8930 ha         1 0ML       0.145000
     28 H12          0.5260     2.1710     1.6690 ha         1 0ML       0.137500
     29 H2          -3.1680    -2.6120     1.0270 hn         1 0ML       0.354300
     30 H14         -5.6210    -0.0550     0.9180 h1         1 0ML       0.053700
     31 H15         -5.9540     0.8710    -1.4350 ho         1 0ML       0.443000
@<TRIPOS>BOND
     1     1     2 1   
     2     1    17 1   
     3     1    29 1   
     4     2     3 1   
     5     2     5 1   
     6     2    18 1   
     7     3     4 1   
     8     3     6 1   
     9     3    30 1   
    10     4    31 1   
    11     5    19 1   
    12     5    20 1   
    13     5    21 1   
    14     6     7 2   
    15     6     8 1   
    16     8     9 1   
    17     8    22 1   
    18     9    10 1   
    19     9    23 1   
    20     9    24 1   
    21    10    11 ar  
    22    10    16 ar  
    23    11    12 ar  
    24    11    25 1   
    25    12    13 ar  
    26    12    26 1   
    27    13    14 1   
    28    13    15 ar  
    29    15    16 ar  
    30    15    27 1   
    31    16    28 1   
@<TRIPOS>SUBSTRUCTURE
     1 0ML         1 TEMP              0 ****  ****    0 ROOT
