@<TRIPOS>MOLECULE
0MM
   48    51     1     0     0
SMALL
abcg2


@<TRIPOS>ATOM
      1 C1           3.9030     2.2110    -1.7180 ca         1 0MM      -0.167000
      2 C2           3.9240     0.8690    -1.3830 ca         1 0MM      -0.039000
      3 C3          -4.0350    -0.7260    -0.8480 ca         1 0MM      -0.179000
      4 C4          -5.3620    -0.4930    -0.5480 ca         1 0MM      -0.015000
      5 C5          -4.7050     1.4020     0.7980 ca         1 0MM      -0.018000
      6 C6           3.7430     3.1350    -0.6990 ca         1 0MM       0.365900
      7 C7           3.7890     0.4840    -0.0530 ca         1 0MM      -0.184500
      8 C8           2.9420    -1.9500    -0.2530 cc         1 0MM      -0.295600
      9 C9          -3.0070     0.0770    -0.3400 ca         1 0MM       0.342000
     10 C10         -5.6870     0.5640     0.2880 ca         1 0MM      -0.204200
     11 C11         -3.3880     1.1610     0.4740 ca         1 0MM       0.069000
     12 C12          3.7870    -0.9430     0.2920 cc         1 0MM       0.348500
     13 C13          3.3800    -3.0910     0.3450 cd         1 0MM       0.250300
     14 C14          3.6180     1.5100     0.8750 ca         1 0MM       0.465000
     15 C16         -1.3620    -0.8740    -1.8630 c6         1 0MM       0.175300
     16 C17         -0.7800    -0.5190     0.4390 c6         1 0MM       0.175300
     17 C18          0.0710    -0.5620    -2.2610 c6         1 0MM       0.094000
     18 C19          0.6570    -0.2030     0.0630 c6         1 0MM       0.094000
     19 C20          2.9600    -4.5050     0.2570 c3         1 0MM      -0.145400
     20 N21          3.5990     2.7840     0.5740 nb         1 0MM      -0.663000
     21 N22          4.6380    -1.4500     1.1330 nd         1 0MM      -0.325300
     22 N23         -1.6790    -0.1460    -0.6480 nh         1 0MM      -0.792400
     23 N24          0.9960    -0.8650    -1.1830 n          1 0MM      -0.405800
     24 N25         -7.0700     0.8150     0.6260 no         1 0MM       0.700200
     25 O26         -7.9130     0.0880     0.1520 o          1 0MM      -0.399000
     26 O27          1.9710    -2.5890    -2.2850 o          1 0MM      -0.594100
     27 O28         -7.3190     1.7370     1.3690 o          1 0MM      -0.399000
     28 O29          4.3730    -2.7820     1.1770 os         1 0MM      -0.061700
     29 CL30        -2.2010     2.2970     1.0150 cl         1 0MM      -0.170000
     30 CL31         3.3580     1.1260     2.5440 cl         1 0MM      -0.150000
     31 H1           4.0110     2.5340    -2.7430 ha         1 0MM       0.136000
     32 H2           4.0560     0.1160    -2.1500 ha         1 0MM       0.137000
     33 H4          -6.1210    -1.1480    -0.9490 ha         1 0MM       0.154000
     34 H5          -4.9590     2.2510     1.4170 ha         1 0MM       0.166000
     35 H6           3.7250     4.1970    -0.9090 h4         1 0MM       0.031100
     36 H16         -2.0220    -0.5490    -2.6680 h1         1 0MM       0.054200
     37 H16A        -1.4830    -1.9590    -1.7390 h1         1 0MM       0.054200
     38 H17         -0.8720    -1.5940     0.6470 h1         1 0MM       0.054200
     39 H17A        -1.0350     0.0090     1.3540 h1         1 0MM       0.054200
     40 H18          0.3430    -1.1260    -3.1490 h1         1 0MM       0.071700
     41 H18A         0.1560     0.5030    -2.4950 h1         1 0MM       0.071700
     42 H19          0.7800     0.8780    -0.0500 h1         1 0MM       0.071700
     43 H19A         1.3000    -0.5430     0.8710 h1         1 0MM       0.071700
     44 H20          3.7750    -5.1280    -0.1120 hc         1 0MM       0.073367
     45 H20A         2.6640    -4.8850     1.2350 hc         1 0MM       0.073367
     46 H20B         2.1190    -4.6050    -0.4230 hc         1 0MM       0.073367
     47 C15          1.9190    -1.8410    -1.3190 c          1 0MM       0.653700
     48 H3          -3.7920    -1.5700    -1.4790 ha         1 0MM       0.131000
@<TRIPOS>BOND
     1     1     2 ar  
     2     1     6 ar  
     3     1    31 1   
     4     2     7 ar  
     5     2    32 1   
     6     3     4 ar  
     7     3     9 ar  
     8     3    48 1   
     9     4    10 ar  
    10     4    33 1   
    11     5    10 ar  
    12     5    11 ar  
    13     5    34 1   
    14     6    20 ar  
    15     6    35 1   
    16     7    12 1   
    17     7    14 ar  
    18     8    12 1   
    19     8    13 2   
    20     8    47 1   
    21     9    11 ar  
    22     9    22 1   
    23    10    24 1   
    24    11    29 1   
    25    12    21 2   
    26    13    19 1   
    27    13    28 1   
    28    14    20 ar  
    29    14    30 1   
    30    15    17 1   
    31    15    22 1   
    32    15    36 1   
    33    15    37 1   
    34    16    18 1   
    35    16    22 1   
    36    16    38 1   
    37    16    39 1   
    38    17    23 1   
    39    17    40 1   
    40    17    41 1   
    41    18    23 1   
    42    18    42 1   
    43    18    43 1   
    44    19    44 1   
    45    19    45 1   
    46    19    46 1   
    47    21    28 1   
    48    23    47 1   
    49    24    25 1   
    50    24    27 1   
    51    26    47 2   
@<TRIPOS>SUBSTRUCTURE
     1 0MM         1 TEMP              0 ****  ****    0 ROOT
