@<TRIPOS>MOLECULE
0MM
   48    51     1     0     0
SMALL
No Charge or Current Charge


@<TRIPOS>ATOM
      1 C1           3.5440     2.2140    -1.5400 ca         1 0MM      -0.167000
      2 C2           3.5190     0.8470    -1.2300 ca         1 0MM      -0.039000
      3 C3          -4.0990    -0.8450    -0.6060 ca         1 0MM      -0.179000
      4 C4          -5.4500    -0.5610    -0.3440 ca         1 0MM      -0.015000
      5 C5          -4.8220     1.6690     0.4100 ca         1 0MM      -0.018000
      6 C6           3.7600     3.1450    -0.5160 ca         1 0MM       0.365900
      7 C7           3.6920     0.4440     0.1140 ca         1 0MM      -0.184500
      8 C8           3.0450    -2.0370    -0.2110 cc         1 0MM      -0.295600
      9 C9          -3.0980     0.1130    -0.3650 ca         1 0MM       0.342000
     10 C10         -5.8250     0.7010     0.1680 ca         1 0MM      -0.204200
     11 C11         -3.4710     1.3790     0.1480 ca         1 0MM       0.069000
     12 C12          3.7310    -0.9870     0.4580 cc         1 0MM       0.348500
     13 C13          3.6340    -3.1770     0.2340 cd         1 0MM       0.250300
     14 C14          3.9360     1.4640     1.0700 ca         1 0MM       0.465000
     15 C16         -1.3600    -0.9240    -1.8850 c6         1 0MM       0.175300
     16 C17         -0.8120    -0.4720     0.5000 c6         1 0MM       0.175300
     17 C18          0.1110    -0.6160    -2.2700 c6         1 0MM       0.094000
     18 C19          0.6650    -0.1900     0.1090 c6         1 0MM       0.094000
     19 C20          3.3660    -4.6250    -0.0690 c3         1 0MM      -0.145400
     20 N21          3.9530     2.7820     0.7690 nb         1 0MM      -0.663000
     21 N22          4.6550    -1.4480     1.2890 nd         1 0MM      -0.325300
     22 N23         -1.7430    -0.2080    -0.6340 nh         1 0MM      -0.792400
     23 N24          1.0590    -0.8920    -1.1530 n          1 0MM      -0.405800
     24 N25         -7.2630     1.0120     0.4490 no         1 0MM       0.700200
     25 O26         -8.1070     0.1360     0.2200 o          1 0MM      -0.399000
     26 O27          1.7620    -2.8980    -1.9970 o          1 0MM      -0.594100
     27 O28         -7.5420     2.1320     0.8980 o          1 0MM      -0.399000
     28 O29          4.5830    -2.8730     1.1670 os         1 0MM      -0.061700
     29 Cl30        -2.2700     2.6440     0.4490 cl         1 0MM      -0.170000
     30 Cl31         4.1010     1.1440     2.7980 cl         1 0MM      -0.150000
     31 H1           3.4100     2.5550    -2.5630 ha         1 0MM       0.136000
     32 H2           3.3960     0.1220    -2.0310 ha         1 0MM       0.137000
     33 H4          -6.1970    -1.3300    -0.5400 ha         1 0MM       0.154000
     34 H5          -5.0770     2.6520     0.8000 ha         1 0MM       0.166000
     35 H6           3.7850     4.2130    -0.7310 h4         1 0MM       0.031100
     36 H16         -2.0140    -0.6210    -2.7160 h1         1 0MM       0.054200
     37 H16A        -1.4740    -2.0100    -1.7500 h1         1 0MM       0.054200
     38 H17         -0.9010    -1.5220     0.8140 h1         1 0MM       0.054200
     39 H17A        -1.0710     0.1490     1.3700 h1         1 0MM       0.054200
     40 H18          0.3820    -1.1920    -3.1660 h1         1 0MM       0.071700
     41 H18A         0.1880     0.4470    -2.5400 h1         1 0MM       0.071700
     42 H19          0.7980     0.8930    -0.0280 h1         1 0MM       0.071700
     43 H19A         1.2910    -0.4970     0.9550 h1         1 0MM       0.071700
     44 H20          3.6390    -4.8640    -1.1030 hc         1 0MM       0.073367
     45 H20A         3.9430    -5.2830     0.5910 hc         1 0MM       0.073367
     46 H20B         2.3040    -4.8630     0.0660 hc         1 0MM       0.073367
     47 C15          1.9390    -1.9970    -1.1900 c          1 0MM       0.653700
     48 H3          -3.8290    -1.8240    -0.9890 ha         1 0MM       0.131000
@<TRIPOS>BOND
     1     1     2 ar  
     2     1     6 ar  
     3     1    31 1   
     4     2     7 ar  
     5     2    32 1   
     6     3     4 ar  
     7     3     9 ar  
     8     3    48 1   
     9     4    10 ar  
    10     4    33 1   
    11     5    10 ar  
    12     5    11 ar  
    13     5    34 1   
    14     6    20 ar  
    15     6    35 1   
    16     7    12 1   
    17     7    14 ar  
    18     8    12 1   
    19     8    13 2   
    20     8    47 1   
    21     9    11 ar  
    22     9    22 1   
    23    10    24 1   
    24    11    29 1   
    25    12    21 2   
    26    13    19 1   
    27    13    28 1   
    28    14    20 ar  
    29    14    30 1   
    30    15    17 1   
    31    15    22 1   
    32    15    36 1   
    33    15    37 1   
    34    16    18 1   
    35    16    22 1   
    36    16    38 1   
    37    16    39 1   
    38    17    23 1   
    39    17    40 1   
    40    17    41 1   
    41    18    23 1   
    42    18    42 1   
    43    18    43 1   
    44    19    44 1   
    45    19    45 1   
    46    19    46 1   
    47    21    28 1   
    48    23    47 1   
    49    24    25 1   
    50    24    27 1   
    51    26    47 2   
@<TRIPOS>SUBSTRUCTURE
     1 0MM         1 TEMP              0 ****  ****    0 ROOT
