@<TRIPOS>MOLECULE
0MN
   46    49     1     0     0
SMALL
bcc


@<TRIPOS>ATOM
      1 O3           2.0380    -1.2450     0.1270 o          1 0MN      -0.530100
      2 C8           2.1360    -0.0410     0.0460 c          1 0MN       0.675100
      3 C7           3.4740     0.6810     0.0280 c3         1 0MN       0.054400
      4 O2           4.4790    -0.2900     0.0390 os         1 0MN      -0.286900
      5 C6           5.7680     0.1160     0.0260 ca         1 0MN       0.169100
      6 C5           6.1690     1.4520     0.0300 ca         1 0MN      -0.254000
      7 C4           7.5270     1.7350     0.0170 ca         1 0MN      -0.055000
      8 C3           8.4890     0.7370    -0.0010 ca         1 0MN      -0.247000
      9 C22          6.7150    -0.9010     0.0070 ca         1 0MN      -0.195000
     10 C2           8.0730    -0.5950    -0.0060 ca         1 0MN       0.176100
     11 O1           8.9110    -1.6490    -0.0240 os         1 0MN      -0.314900
     12 C1          10.3030    -1.4060    -0.0370 c3         1 0MN       0.125700
     13 N1           1.0920     0.8260    -0.0300 ns         1 0MN      -0.478100
     14 C9          -0.2750     0.5660    -0.0080 ca         1 0MN       0.093600
     15 C14         -0.8380    -0.7090     0.1030 ca         1 0MN      -0.178000
     16 C13         -2.2130    -0.8540     0.1200 ca         1 0MN      -0.064000
     17 C12         -3.0670     0.2450     0.0280 ca         1 0MN      -0.152900
     18 C11         -2.4950     1.5130    -0.0830 ca         1 0MN      -0.064000
     19 C10         -1.1260     1.6720    -0.1000 ca         1 0MN      -0.178000
     20 C15         -4.5110     0.0470     0.0470 cc         1 0MN       0.466800
     21 S           -5.6100     1.4090    -0.0970 ss         1 0MN      -0.113100
     22 C21         -6.9400     0.3110     0.0170 ca         1 0MN      -0.056100
     23 C16         -6.4480    -0.9970     0.1540 ca         1 0MN       0.100400
     24 N2          -5.0810    -1.1030     0.1660 nd         1 0MN      -0.541100
     25 C20         -8.3030     0.5830    -0.0120 ca         1 0MN      -0.091000
     26 C19         -9.1760    -0.4850     0.0990 ca         1 0MN      -0.119000
     27 C18         -8.7000    -1.7950     0.2350 ca         1 0MN      -0.130000
     28 C17         -7.3450    -2.0610     0.2640 ca         1 0MN      -0.073000
     29 H1           3.5290     1.3170    -0.8640 h1         1 0MN       0.051700
     30 H2           3.5300     1.3410     0.9030 h1         1 0MN       0.051700
     31 H3           5.4600     2.2670     0.0430 ha         1 0MN       0.131000
     32 H4           7.8440     2.7700     0.0210 ha         1 0MN       0.128000
     33 H5           9.5360     1.0080    -0.0100 ha         1 0MN       0.138000
     34 H6           6.3950    -1.9360     0.0030 ha         1 0MN       0.166000
     35 H7          10.6130    -0.8500    -0.9260 h1         1 0MN       0.042033
     36 H8          10.6320    -0.8620     0.8520 h1         1 0MN       0.042033
     37 H9          10.7850    -2.3810    -0.0490 h1         1 0MN       0.042033
     38 H10          1.3310     1.8040    -0.1100 hn         1 0MN       0.315500
     39 H11         -0.2170    -1.5870     0.1740 ha         1 0MN       0.150000
     40 H12         -2.6300    -1.8480     0.2070 ha         1 0MN       0.147500
     41 H13         -3.1120     2.4010    -0.1550 ha         1 0MN       0.147500
     42 H14         -0.7090     2.6680    -0.1870 ha         1 0MN       0.150000
     43 H15         -8.6720     1.5940    -0.1180 ha         1 0MN       0.142000
     44 H16        -10.2420    -0.3040     0.0800 ha         1 0MN       0.133000
     45 H17         -9.4070    -2.6090     0.3190 ha         1 0MN       0.135000
     46 H18         -6.9740    -3.0720     0.3690 ha         1 0MN       0.150000
@<TRIPOS>BOND
     1     1     2 2   
     2     2     3 1   
     3     2    13 1   
     4     3     4 1   
     5     3    29 1   
     6     3    30 1   
     7     4     5 1   
     8     5     6 ar  
     9     5     9 ar  
    10     6     7 ar  
    11     6    31 1   
    12     7     8 ar  
    13     7    32 1   
    14     8    10 ar  
    15     8    33 1   
    16     9    10 ar  
    17     9    34 1   
    18    10    11 1   
    19    11    12 1   
    20    12    35 1   
    21    12    36 1   
    22    12    37 1   
    23    13    14 1   
    24    13    38 1   
    25    14    15 ar  
    26    14    19 ar  
    27    15    16 ar  
    28    15    39 1   
    29    16    17 ar  
    30    16    40 1   
    31    17    18 ar  
    32    17    20 1   
    33    18    19 ar  
    34    18    41 1   
    35    19    42 1   
    36    20    21 1   
    37    20    24 2   
    38    21    22 1   
    39    22    23 ar  
    40    22    25 ar  
    41    23    24 1   
    42    23    28 ar  
    43    25    26 ar  
    44    25    43 1   
    45    26    27 ar  
    46    26    44 1   
    47    27    28 ar  
    48    27    45 1   
    49    28    46 1   
@<TRIPOS>SUBSTRUCTURE
     1 0MN         1 TEMP              0 ****  ****    0 ROOT
