@<TRIPOS>MOLECULE
0MN
   46    49     1     0     0
SMALL
No Charge or Current Charge


@<TRIPOS>ATOM
      1 O3           2.0340    -1.3990     0.0920 o          1 0MN      -0.530100
      2 C8           2.1360    -0.1770     0.0340 c          1 0MN       0.608100
      3 C7           3.5000     0.5480    -0.0070 c3         1 0MN       0.077600
      4 O2           4.6160    -0.3740     0.0290 os         1 0MN      -0.310100
      5 C6           5.9260     0.0540     0.0020 ca         1 0MN       0.169100
      6 C5           6.2770     1.4190    -0.0630 ca         1 0MN      -0.236000
      7 C4           7.6300     1.7970    -0.0880 ca         1 0MN      -0.037000
      8 C3           8.6350     0.8160    -0.0490 ca         1 0MN      -0.229000
      9 C22          6.9350    -0.9190     0.0410 ca         1 0MN      -0.177000
     10 C2           8.2880    -0.5500     0.0160 ca         1 0MN       0.176100
     11 O1           9.2310    -1.5560     0.0570 os         1 0MN      -0.338100
     12 C1          10.6440    -1.2840     0.0360 c3         1 0MN       0.148900
     13 N1           1.0530     0.6940    -0.0000 ns         1 0MN      -0.152000
     14 C9          -0.3540     0.4800     0.0180 ca         1 0MN       0.001000
     15 C14         -0.9540    -0.7940     0.0900 ca         1 0MN      -0.160000
     16 C13         -2.3540    -0.9250     0.1050 ca         1 0MN      -0.046000
     17 C12         -3.1940     0.2110     0.0480 ca         1 0MN      -0.152900
     18 C11         -2.5840     1.4850    -0.0230 ca         1 0MN      -0.046000
     19 C10         -1.1840     1.6110    -0.0380 ca         1 0MN      -0.160000
     20 C15         -4.6640     0.0610     0.0640 cc         1 0MN       0.466800
     21 S           -5.7370     1.4870    -0.0110 ss         1 0MN       0.013800
     22 C21         -7.0640     0.3450     0.0600 ca         1 0MN      -0.183000
     23 C16         -6.6240    -0.9600     0.1320 ca         1 0MN       0.100400
     24 N2          -5.2480    -1.1490     0.1350 nd         1 0MN      -0.541100
     25 C20         -8.4290     0.6710     0.0490 ca         1 0MN      -0.073000
     26 C19         -9.3710    -0.3740     0.1130 ca         1 0MN      -0.101000
     27 C18         -8.9340    -1.7140     0.1860 ca         1 0MN      -0.112000
     28 C17         -7.5550    -2.0100     0.1960 ca         1 0MN      -0.055000
     29 H1           3.5270     1.1490    -0.9240 h1         1 0MN       0.051700
     30 H2           3.5370     1.2310     0.8510 h1         1 0MN       0.051700
     31 H3           5.5210     2.1980    -0.0950 ha         1 0MN       0.113000
     32 H4           7.9000     2.8500    -0.1380 ha         1 0MN       0.110000
     33 H5           9.6730     1.1350    -0.0690 ha         1 0MN       0.120000
     34 H6           6.6660    -1.9700     0.0910 ha         1 0MN       0.148000
     35 H7          10.9250    -0.7540    -0.8830 h1         1 0MN       0.042033
     36 H8          10.9360    -0.6720     0.9000 h1         1 0MN       0.042033
     37 H9          11.2120    -2.2210     0.0760 h1         1 0MN       0.042033
     38 H10          1.3110     1.6710    -0.0480 hn         1 0MN       0.149000
     39 H11         -0.3590    -1.7000     0.1360 ha         1 0MN       0.132000
     40 H12         -2.7790    -1.9250     0.1610 ha         1 0MN       0.129500
     41 H13         -3.1800     2.3930    -0.0690 ha         1 0MN       0.129500
     42 H14         -0.7440     2.6050    -0.0930 ha         1 0MN       0.132000
     43 H15         -8.7550     1.7080    -0.0080 ha         1 0MN       0.124000
     44 H16        -10.4350    -0.1480     0.1050 ha         1 0MN       0.115000
     45 H17         -9.6620    -2.5210     0.2350 ha         1 0MN       0.117000
     46 H18         -7.2140    -3.0410     0.2520 ha         1 0MN       0.132000
@<TRIPOS>BOND
     1     1     2 2   
     2     2     3 1   
     3     2    13 1   
     4     3     4 1   
     5     3    29 1   
     6     3    30 1   
     7     4     5 1   
     8     5     6 ar  
     9     5     9 ar  
    10     6     7 ar  
    11     6    31 1   
    12     7     8 ar  
    13     7    32 1   
    14     8    10 ar  
    15     8    33 1   
    16     9    10 ar  
    17     9    34 1   
    18    10    11 1   
    19    11    12 1   
    20    12    35 1   
    21    12    36 1   
    22    12    37 1   
    23    13    14 1   
    24    13    38 1   
    25    14    15 ar  
    26    14    19 ar  
    27    15    16 ar  
    28    15    39 1   
    29    16    17 ar  
    30    16    40 1   
    31    17    18 ar  
    32    17    20 1   
    33    18    19 ar  
    34    18    41 1   
    35    19    42 1   
    36    20    21 1   
    37    20    24 2   
    38    21    22 1   
    39    22    23 ar  
    40    22    25 ar  
    41    23    24 1   
    42    23    28 ar  
    43    25    26 ar  
    44    25    43 1   
    45    26    27 ar  
    46    26    44 1   
    47    27    28 ar  
    48    27    45 1   
    49    28    46 1   
@<TRIPOS>SUBSTRUCTURE
     1 0MN         1 TEMP              0 ****  ****    0 ROOT
