@<TRIPOS>MOLECULE
0MO
   42    43     1     0     0
SMALL
abcg2


@<TRIPOS>ATOM
      1 C1           4.4440     4.5020    -0.0620 c3         1 0MO      -0.088100
      2 N1          -4.4280     1.2280    -0.3100 ns         1 0MO      -0.501900
      3 O1           2.2840     0.0950    -0.0550 os         1 0MO      -0.329100
      4 C2           3.1720     3.7160    -0.3460 c3         1 0MO      -0.075400
      5 N2          -2.8230     0.3120     0.8800 ns         1 0MO      -0.498900
      6 O2           2.8290    -2.3550     0.5120 os         1 0MO      -0.319100
      7 C3           3.3320     2.2290    -0.0550 c3         1 0MO      -0.081400
      8 O3          -3.0820     2.6070     0.9640 o          1 0MO      -0.577000
      9 C4           2.0550     1.4660    -0.3350 c3         1 0MO       0.160600
     10 C5           1.2690    -0.7750    -0.2090 ca         1 0MO       0.125100
     11 C6           1.5670    -2.1180     0.1030 ca         1 0MO       0.111100
     12 C7           3.1780    -3.6830     0.8440 c3         1 0MO       0.144900
     13 C8           0.5780    -3.0770    -0.0330 ca         1 0MO      -0.168000
     14 C9          -0.6980    -2.7240    -0.4690 ca         1 0MO      -0.108000
     15 C10         -1.0040    -1.4110    -0.7780 ca         1 0MO      -0.087300
     16 C11         -2.3940    -1.0140    -1.1850 c3         1 0MO      -0.054100
     17 C12         -3.3000    -0.7590     0.0270 c5         1 0MO       0.090700
     18 C13         -4.6710    -0.1980    -0.3760 c5         1 0MO       0.075000
     19 C14         -3.4090     1.5040     0.5550 c          1 0MO       0.577000
     20 C15         -0.0040    -0.4410    -0.6430 ca         1 0MO      -0.177000
     21 H1           4.7320     4.4210     0.9880 hc         1 0MO       0.033700
     22 H1A          5.2790     4.1310    -0.6610 hc         1 0MO       0.033700
     23 H1B          4.3180     5.5610    -0.2900 hc         1 0MO       0.033700
     24 H41         -5.1860     1.8850    -0.4000 hn         1 0MO       0.324500
     25 H2           2.3500     4.1200     0.2520 hc         1 0MO       0.039700
     26 H2A          2.8820     3.8540    -1.3920 hc         1 0MO       0.039700
     27 HN2         -1.8840     0.3060     1.2480 hn         1 0MO       0.331500
     28 H3           4.1440     1.8220    -0.6650 hc         1 0MO       0.055200
     29 H3A          3.6190     2.0890     0.9910 hc         1 0MO       0.055200
     30 H4           1.7550     1.5960    -1.3820 h1         1 0MO       0.034200
     31 H4A          1.2400     1.8510     0.2900 h1         1 0MO       0.034200
     32 H7           4.2230    -3.6620     1.1440 h1         1 0MO       0.039700
     33 H7A          2.5820    -4.0660     1.6770 h1         1 0MO       0.039700
     34 H7B          3.0690    -4.3610    -0.0060 h1         1 0MO       0.039700
     35 H8           0.7810    -4.1150     0.1940 ha         1 0MO       0.119000
     36 H9          -1.4520    -3.4960    -0.5650 ha         1 0MO       0.111000
     37 H11         -2.3710    -0.1180    -1.8110 hc         1 0MO       0.059200
     38 H11A        -2.8520    -1.8070    -1.7810 hc         1 0MO       0.059200
     39 H12         -3.4070    -1.6850     0.5950 h1         1 0MO       0.071700
     40 H15         -0.2410     0.5840    -0.8980 ha         1 0MO       0.124000
     41 H13         -5.4470    -0.5130     0.3290 h1         1 0MO       0.050700
     42 H22         -4.9680    -0.5170    -1.3750 h1         1 0MO       0.050700
@<TRIPOS>BOND
     1     1     4 1   
     2     1    21 1   
     3     1    22 1   
     4     1    23 1   
     5     2    18 1   
     6     2    19 1   
     7     2    24 1   
     8     3     9 1   
     9     3    10 1   
    10     4     7 1   
    11     4    25 1   
    12     4    26 1   
    13     5    17 1   
    14     5    19 1   
    15     5    27 1   
    16     6    11 1   
    17     6    12 1   
    18     7     9 1   
    19     7    28 1   
    20     7    29 1   
    21     8    19 2   
    22     9    30 1   
    23     9    31 1   
    24    10    11 ar  
    25    10    20 ar  
    26    11    13 ar  
    27    12    32 1   
    28    12    33 1   
    29    12    34 1   
    30    13    14 ar  
    31    13    35 1   
    32    14    15 ar  
    33    14    36 1   
    34    15    16 1   
    35    15    20 ar  
    36    16    17 1   
    37    16    37 1   
    38    16    38 1   
    39    17    18 1   
    40    17    39 1   
    41    18    41 1   
    42    18    42 1   
    43    20    40 1   
@<TRIPOS>SUBSTRUCTURE
     1 0MO         1 TEMP              0 ****  ****    0 ROOT
