@<TRIPOS>MOLECULE
0MO
   42    43     1     0     0
SMALL
No Charge or Current Charge


@<TRIPOS>ATOM
      1 C1           4.7310     4.5420    -0.1520 c3         1 0MO      -0.088100
      2 N1          -4.8430     1.0760    -0.0170 ns         1 0MO      -0.501900
      3 O1           2.3180     0.1890    -0.0670 os         1 0MO      -0.329100
      4 C2           3.3960     3.8170    -0.4100 c3         1 0MO      -0.075400
      5 N2          -3.0170     0.2350     0.8750 ns         1 0MO      -0.498900
      6 O2           2.8530    -2.4260     0.5730 os         1 0MO      -0.319100
      7 C3           3.4640     2.3020    -0.1160 c3         1 0MO      -0.081400
      8 O3          -3.6380     2.3590     1.4360 o          1 0MO      -0.577000
      9 C4           2.1280     1.5800    -0.3750 c3         1 0MO       0.160600
     10 C5           1.3030    -0.7460    -0.1920 ca         1 0MO       0.125100
     11 C6           1.5790    -2.0950     0.1390 ca         1 0MO       0.111100
     12 C7           3.2230    -3.7690     0.9310 c3         1 0MO       0.144900
     13 C8           0.5580    -3.0650     0.0220 ca         1 0MO      -0.168000
     14 C9          -0.7220    -2.6930    -0.4210 ca         1 0MO      -0.108000
     15 C10         -1.0020    -1.3560    -0.7530 ca         1 0MO      -0.087300
     16 C11         -2.3970    -0.9640    -1.2260 c3         1 0MO      -0.054100
     17 C12         -3.4150    -0.8070    -0.0710 c5         1 0MO       0.090700
     18 C13         -4.8240    -0.2880    -0.5420 c5         1 0MO       0.075000
     19 C14         -3.8140     1.3250     0.8230 c          1 0MO       0.577000
     20 C15          0.0100    -0.3850    -0.6380 ca         1 0MO      -0.177000
     21 H1           5.0340     4.4360     0.8970 hc         1 0MO       0.033700
     22 H1A          5.5260     4.1310    -0.7860 hc         1 0MO       0.033700
     23 H1B          4.6340     5.6120    -0.3740 hc         1 0MO       0.033700
     24 H41         -5.5570     1.7790    -0.1640 hn         1 0MO       0.324500
     25 H2           2.6160     4.2740     0.2120 hc         1 0MO       0.039700
     26 H2A          3.1030     3.9720    -1.4560 hc         1 0MO       0.039700
     27 HN2         -2.1690     0.2600     1.4260 hn         1 0MO       0.331500
     28 H3           4.2430     1.8470    -0.7400 hc         1 0MO       0.055200
     29 H3A          3.7550     2.1490     0.9300 hc         1 0MO       0.055200
     30 H4           1.8400     1.7080    -1.4270 h1         1 0MO       0.034200
     31 H4A          1.3460     2.0150     0.2620 h1         1 0MO       0.034200
     32 H7           4.2740    -3.8020     1.2440 h1         1 0MO       0.039700
     33 H7A          2.6090    -4.1330     1.7640 h1         1 0MO       0.039700
     34 H7B          3.1010    -4.4480     0.0770 h1         1 0MO       0.039700
     35 H8           0.7360    -4.1070     0.2680 ha         1 0MO       0.119000
     36 H9          -1.5010    -3.4490    -0.5050 ha         1 0MO       0.111000
     37 H11         -2.3470    -0.0290    -1.7970 hc         1 0MO       0.059200
     38 H11A        -2.7680    -1.7180    -1.9310 hc         1 0MO       0.059200
     39 H12         -3.5170    -1.7800     0.4290 h1         1 0MO       0.071700
     40 H15         -0.2250     0.6430    -0.8940 ha         1 0MO       0.124000
     41 H13         -5.6300    -0.8930    -0.1060 h1         1 0MO       0.050700
     42 H22         -4.9320    -0.3170    -1.6350 h1         1 0MO       0.050700
@<TRIPOS>BOND
     1     1     4 1   
     2     1    21 1   
     3     1    22 1   
     4     1    23 1   
     5     2    18 1   
     6     2    19 1   
     7     2    24 1   
     8     3     9 1   
     9     3    10 1   
    10     4     7 1   
    11     4    25 1   
    12     4    26 1   
    13     5    17 1   
    14     5    19 1   
    15     5    27 1   
    16     6    11 1   
    17     6    12 1   
    18     7     9 1   
    19     7    28 1   
    20     7    29 1   
    21     8    19 2   
    22     9    30 1   
    23     9    31 1   
    24    10    11 ar  
    25    10    20 ar  
    26    11    13 ar  
    27    12    32 1   
    28    12    33 1   
    29    12    34 1   
    30    13    14 ar  
    31    13    35 1   
    32    14    15 ar  
    33    14    36 1   
    34    15    16 1   
    35    15    20 ar  
    36    16    17 1   
    37    16    37 1   
    38    16    38 1   
    39    17    18 1   
    40    17    39 1   
    41    18    41 1   
    42    18    42 1   
    43    20    40 1   
@<TRIPOS>SUBSTRUCTURE
     1 0MO         1 TEMP              0 ****  ****    0 ROOT
