@<TRIPOS>MOLECULE
0MP
   73    76     1     0     0
SMALL
No Charge or Current Charge


@<TRIPOS>ATOM
      1 C2           3.4240    -3.9530     1.4540 cy         1 0MP      -0.095400
      2 C3           2.7040    -5.2590     0.9730 cy         1 0MP      -0.091400
      3 C4           3.2620    -4.9300    -0.4540 cy         1 0MP      -0.095400
      4 C1           3.2830    -3.4260    -0.0180 cy         1 0MP       0.173000
      5 C13          1.9700    -2.6560    -0.3130 c6         1 0MP      -0.134400
      6 O12          4.3900    -2.6720    -0.5030 os         1 0MP      -0.441300
      7 C5           4.5000    -1.3330    -0.2180 ca         1 0MP       0.589300
      8 N10          5.7230    -0.7880    -0.3630 nb         1 0MP      -0.700000
      9 C9           5.8660     0.5250    -0.0880 ca         1 0MP       0.377900
     10 C8           4.8080     1.3480     0.3410 ca         1 0MP      -0.166300
     11 C14          5.0440     2.8250     0.6550 c3         1 0MP      -0.012100
     12 C15          4.8330     3.8010    -0.5460 c3         1 0MP      -0.044000
     13 C17          5.1110     5.2490    -0.0630 c3         1 0MP      -0.084767
     14 C18          5.8120     3.4650    -1.7040 c3         1 0MP      -0.084767
     15 C16          3.3740     3.7220    -1.0700 c3         1 0MP      -0.084767
     16 C7           3.5360     0.7730     0.4950 ca         1 0MP      -0.020000
     17 C6           3.3690    -0.5910     0.1910 ca         1 0MP      -0.211300
     18 C11          2.0040    -1.2600     0.3470 c6         1 0MP       0.242800
     19 N29          0.9510    -0.3890    -0.2050 n7         1 0MP      -0.867400
     20 C28         -0.4630    -0.7290     0.0740 c3         1 0MP       0.142800
     21 C26         -1.4330     0.2520    -0.6520 c3         1 0MP       0.145300
     22 O30         -1.1630     0.2320    -2.0740 oh         1 0MP      -0.648000
     23 C25         -2.9400    -0.0730    -0.3850 c3         1 0MP       0.100700
     24 N27         -3.2570    -0.2190     1.0480 ns         1 0MP      -0.506900
     25 C33         -3.1350     0.7620     2.0090 c          1 0MP       0.601100
     26 C35         -3.5980     0.3440     3.3970 c3         1 0MP      -0.181100
     27 O34         -2.6910     1.8750     1.7750 o          1 0MP      -0.606100
     28 C31         -3.9090     0.9290    -1.0730 c3         1 0MP      -0.042100
     29 C19         -5.3770     0.6570    -0.7550 ca         1 0MP      -0.094300
     30 C20         -6.0280    -0.4570    -1.3220 ca         1 0MP      -0.084000
     31 C21         -7.3780    -0.7160    -1.0220 ca         1 0MP      -0.152000
     32 C22         -8.0770     0.1380    -0.1550 ca         1 0MP       0.167000
     33 F32         -9.3730    -0.1120     0.1340 f          1 0MP      -0.180000
     34 C23         -7.4370     1.2490     0.4140 ca         1 0MP      -0.152000
     35 C24         -6.0880     1.5100     0.1140 ca         1 0MP      -0.084000
     36 H1           2.9080    -3.3800     2.2310 hc         1 0MP       0.065700
     37 H2           4.4620    -4.1080     1.7730 hc         1 0MP       0.065700
     38 H3           3.0630    -6.1920     1.4210 hc         1 0MP       0.052200
     39 H4           1.6110    -5.2370     1.0550 hc         1 0MP       0.052200
     40 H5           4.2550    -5.3500    -0.6530 hc         1 0MP       0.065700
     41 H6           2.6060    -5.1780    -1.2960 hc         1 0MP       0.065700
     42 H7           1.8600    -2.5510    -1.4010 hc         1 0MP       0.056700
     43 H8           1.0900    -3.2120     0.0330 hc         1 0MP       0.056700
     44 H9           6.8690     0.9320    -0.2120 h4         1 0MP       0.020100
     45 H10          4.3830     3.1280     1.4780 hc         1 0MP       0.046200
     46 H11          6.0630     2.9530     1.0420 hc         1 0MP       0.046200
     47 H12          6.1390     5.3500     0.3060 hc         1 0MP       0.034033
     48 H13          4.9750     5.9700    -0.8790 hc         1 0MP       0.034033
     49 H14          4.4310     5.5300     0.7500 hc         1 0MP       0.034033
     50 H15          5.6030     2.4760    -2.1280 hc         1 0MP       0.034033
     51 H16          5.7220     4.1970    -2.5150 hc         1 0MP       0.034033
     52 H17          6.8510     3.4750    -1.3540 hc         1 0MP       0.034033
     53 H18          2.6560     3.9170    -0.2640 hc         1 0MP       0.034033
     54 H19          3.2030     4.4630    -1.8610 hc         1 0MP       0.034033
     55 H20          3.1540     2.7340    -1.4910 hc         1 0MP       0.034033
     56 H21          2.6950     1.3740     0.8360 ha         1 0MP       0.137000
     57 H22          1.8270    -1.3830     1.4270 h1         1 0MP       0.065700
     58 H23          1.0700    -0.3230    -1.2230 hn         1 0MP       0.430000
     59 H25         -0.6910    -1.7500    -0.2600 h1         1 0MP       0.030200
     60 H26         -0.6450    -0.6890     1.1560 h1         1 0MP       0.030200
     61 H27         -1.2300     1.2560    -0.2540 h1         1 0MP       0.118700
     62 H28         -1.2900    -0.6910    -2.3820 ho         1 0MP       0.431000
     63 H29         -3.1360    -1.0580    -0.8300 h1         1 0MP       0.036700
     64 H30         -3.6520    -1.0990     1.3580 hn         1 0MP       0.314500
     65 H31         -3.0650    -0.5660     3.6930 hc         1 0MP       0.061033
     66 H32         -3.4810     1.1430     4.1390 hc         1 0MP       0.061033
     67 H33         -4.6360    -0.0020     3.3360 hc         1 0MP       0.061033
     68 H34         -3.6400     1.9500    -0.7790 hc         1 0MP       0.074200
     69 H35         -3.7600     0.8860    -2.1590 hc         1 0MP       0.074200
     70 H36         -5.4890    -1.1220    -1.9930 ha         1 0MP       0.119500
     71 H37         -7.8800    -1.5750    -1.4580 ha         1 0MP       0.132000
     72 H38         -7.9850     1.9050     1.0850 ha         1 0MP       0.132000
     73 H39         -5.5950     2.3710     0.5610 ha         1 0MP       0.119500
@<TRIPOS>BOND
     1     1     2 1   
     2     1     4 1   
     3     1    36 1   
     4     1    37 1   
     5     2     3 1   
     6     2    38 1   
     7     2    39 1   
     8     3     4 1   
     9     3    40 1   
    10     3    41 1   
    11     4     5 1   
    12     4     6 1   
    13     5    18 1   
    14     5    42 1   
    15     5    43 1   
    16     6     7 1   
    17     7     8 ar  
    18     7    17 ar  
    19     8     9 ar  
    20     9    10 ar  
    21     9    44 1   
    22    10    11 1   
    23    10    16 ar  
    24    11    12 1   
    25    11    45 1   
    26    11    46 1   
    27    12    13 1   
    28    12    14 1   
    29    12    15 1   
    30    13    47 1   
    31    13    48 1   
    32    13    49 1   
    33    14    50 1   
    34    14    51 1   
    35    14    52 1   
    36    15    53 1   
    37    15    54 1   
    38    15    55 1   
    39    16    17 ar  
    40    16    56 1   
    41    17    18 1   
    42    18    19 1   
    43    18    57 1   
    44    19    20 1   
    45    19    58 1   
    46    20    21 1   
    47    20    59 1   
    48    20    60 1   
    49    21    22 1   
    50    21    23 1   
    51    21    61 1   
    52    22    62 1   
    53    23    24 1   
    54    23    28 1   
    55    23    63 1   
    56    24    25 1   
    57    24    64 1   
    58    25    26 1   
    59    25    27 2   
    60    26    65 1   
    61    26    66 1   
    62    26    67 1   
    63    28    29 1   
    64    28    68 1   
    65    28    69 1   
    66    29    30 ar  
    67    29    35 ar  
    68    30    31 ar  
    69    30    70 1   
    70    31    32 ar  
    71    31    71 1   
    72    32    33 1   
    73    32    34 ar  
    74    34    35 ar  
    75    34    72 1   
    76    35    73 1   
@<TRIPOS>SUBSTRUCTURE
     1 0MP         1 TEMP              0 ****  ****    0 ROOT
