@<TRIPOS>MOLECULE
0MP
   73    76     1     0     0
SMALL
bcc


@<TRIPOS>ATOM
      1 C2           3.0850    -3.9210     1.5380 cy         1 0MP      -0.095400
      2 C3           2.6780    -5.2700     0.9160 cy         1 0MP      -0.091400
      3 C4           3.3360    -4.8180    -0.4020 cy         1 0MP      -0.095400
      4 C1           3.2570    -3.3730     0.1040 cy         1 0MP       0.149800
      5 C13          2.0530    -2.6090    -0.4100 c6         1 0MP      -0.134400
      6 O12          4.4540    -2.6460    -0.1410 os         1 0MP      -0.418100
      7 C5           4.4530    -1.3180     0.0640 ca         1 0MP       0.654600
      8 N10          5.6530    -0.7720     0.0240 nb         1 0MP      -0.700000
      9 C9           5.7590     0.5380     0.2070 ca         1 0MP       0.443200
     10 C8           4.6840     1.3830     0.4430 ca         1 0MP      -0.231600
     11 C14          4.8680     2.8590     0.6320 c3         1 0MP      -0.012100
     12 C15          4.6930     3.7260    -0.6350 c3         1 0MP      -0.044000
     13 C17          4.9390     5.1810    -0.2310 c3         1 0MP      -0.084767
     14 C18          5.7120     3.3240    -1.7000 c3         1 0MP      -0.084767
     15 C16          3.2800     3.5940    -1.2040 c3         1 0MP      -0.084767
     16 C7           3.4300     0.7770     0.4800 ca         1 0MP      -0.038000
     17 C6           3.2820    -0.5850     0.2860 ca         1 0MP      -0.276600
     18 C11          1.9290    -1.2540     0.2890 c6         1 0MP       0.242800
     19 N29          0.9390    -0.3600    -0.2700 n7         1 0MP      -0.812200
     20 C28         -0.4370    -0.7720    -0.0910 c3         1 0MP       0.142800
     21 C26         -1.3740     0.2890    -0.6550 c3         1 0MP       0.122100
     22 O30         -1.1680     0.4510    -2.0450 oh         1 0MP      -0.585800
     23 C25         -2.8540    -0.0250    -0.3640 c3         1 0MP       0.100700
     24 N27         -3.1100    -0.2180     1.0520 ns         1 0MP      -0.573900
     25 C33         -3.0180     0.7270     2.0020 c          1 0MP       0.668100
     26 C35         -3.4340     0.2880     3.3850 c3         1 0MP      -0.181100
     27 O34         -2.6360     1.8700     1.7830 o          1 0MP      -0.606100
     28 C31         -3.8010     1.0080    -1.0000 c3         1 0MP      -0.042100
     29 C19         -5.2410     0.7040    -0.7030 ca         1 0MP      -0.094300
     30 C20         -5.9250    -0.2710    -1.4260 ca         1 0MP      -0.102000
     31 C21         -7.2450    -0.5920    -1.1430 ca         1 0MP      -0.170000
     32 C22         -7.8810     0.0830    -0.1190 ca         1 0MP       0.131900
     33 F32         -9.1610    -0.2180     0.1640 f          1 0MP      -0.144900
     34 C23         -7.2430     1.0600     0.6200 ca         1 0MP      -0.170000
     35 C24         -5.9210     1.3610     0.3200 ca         1 0MP      -0.102000
     36 H1           2.3710    -3.4190     2.1940 hc         1 0MP       0.065700
     37 H2           4.0450    -3.9880     2.0510 hc         1 0MP       0.065700
     38 H3           3.0770    -6.1690     1.3820 hc         1 0MP       0.052200
     39 H4           1.5970    -5.3790     0.8270 hc         1 0MP       0.052200
     40 H5           4.3710    -5.1560    -0.4660 hc         1 0MP       0.065700
     41 H6           2.8310    -5.0450    -1.3430 hc         1 0MP       0.065700
     42 H7           2.1570    -2.4560    -1.4900 hc         1 0MP       0.056700
     43 H8           1.1510    -3.2050    -0.2580 hc         1 0MP       0.056700
     44 H9           6.7670     0.9430     0.1670 h4         1 0MP       0.020100
     45 H10          4.1670     3.2160     1.3930 hc         1 0MP       0.046200
     46 H11          5.8700     3.0460     1.0300 hc         1 0MP       0.046200
     47 H12          5.9490     5.3140     0.1620 hc         1 0MP       0.034033
     48 H13          4.8250     5.8480    -1.0870 hc         1 0MP       0.034033
     49 H14          4.2370     5.5050     0.5400 hc         1 0MP       0.034033
     50 H15          5.5500     2.3030    -2.0520 hc         1 0MP       0.034033
     51 H16          5.6480     3.9850    -2.5670 hc         1 0MP       0.034033
     52 H17          6.7330     3.3850    -1.3150 hc         1 0MP       0.034033
     53 H18          2.5240     3.8290    -0.4510 hc         1 0MP       0.034033
     54 H19          3.1390     4.2830    -2.0390 hc         1 0MP       0.034033
     55 H20          3.0810     2.5870    -1.5740 hc         1 0MP       0.034033
     56 H21          2.5400     1.3710     0.6490 ha         1 0MP       0.155000
     57 H22          1.6350    -1.4320     1.3310 h1         1 0MP       0.065700
     58 H23          1.1320    -0.2020    -1.2520 hn         1 0MP       0.374800
     59 H25         -0.6820    -1.7420    -0.5570 h1         1 0MP       0.030200
     60 H26         -0.6170    -0.8940     0.9790 h1         1 0MP       0.030200
     61 H27         -1.1150     1.2510    -0.2080 h1         1 0MP       0.118700
     62 H28         -1.3730    -0.3840    -2.4820 ho         1 0MP       0.392000
     63 H29         -3.0800    -0.9960    -0.8170 h1         1 0MP       0.036700
     64 H30         -3.4470    -1.1240     1.3280 hn         1 0MP       0.314500
     65 H31         -3.6860    -0.7680     3.4530 hc         1 0MP       0.061033
     66 H32         -2.6320     0.5000     4.0910 hc         1 0MP       0.061033
     67 H33         -4.3030     0.8690     3.6970 hc         1 0MP       0.061033
     68 H34         -3.5470     2.0090    -0.6510 hc         1 0MP       0.074200
     69 H35         -3.6390     0.9960    -2.0790 hc         1 0MP       0.074200
     70 H36         -5.4210    -0.7940    -2.2310 ha         1 0MP       0.137500
     71 H37         -7.7690    -1.3490    -1.7100 ha         1 0MP       0.150000
     72 H38         -7.7660     1.5770     1.4140 ha         1 0MP       0.150000
     73 H39         -5.4140     2.1260     0.8940 ha         1 0MP       0.137500
@<TRIPOS>BOND
     1     1     2 1   
     2     1     4 1   
     3     1    36 1   
     4     1    37 1   
     5     2     3 1   
     6     2    38 1   
     7     2    39 1   
     8     3     4 1   
     9     3    40 1   
    10     3    41 1   
    11     4     5 1   
    12     4     6 1   
    13     5    18 1   
    14     5    42 1   
    15     5    43 1   
    16     6     7 1   
    17     7     8 ar  
    18     7    17 ar  
    19     8     9 ar  
    20     9    10 ar  
    21     9    44 1   
    22    10    11 1   
    23    10    16 ar  
    24    11    12 1   
    25    11    45 1   
    26    11    46 1   
    27    12    13 1   
    28    12    14 1   
    29    12    15 1   
    30    13    47 1   
    31    13    48 1   
    32    13    49 1   
    33    14    50 1   
    34    14    51 1   
    35    14    52 1   
    36    15    53 1   
    37    15    54 1   
    38    15    55 1   
    39    16    17 ar  
    40    16    56 1   
    41    17    18 1   
    42    18    19 1   
    43    18    57 1   
    44    19    20 1   
    45    19    58 1   
    46    20    21 1   
    47    20    59 1   
    48    20    60 1   
    49    21    22 1   
    50    21    23 1   
    51    21    61 1   
    52    22    62 1   
    53    23    24 1   
    54    23    28 1   
    55    23    63 1   
    56    24    25 1   
    57    24    64 1   
    58    25    26 1   
    59    25    27 2   
    60    26    65 1   
    61    26    66 1   
    62    26    67 1   
    63    28    29 1   
    64    28    68 1   
    65    28    69 1   
    66    29    30 ar  
    67    29    35 ar  
    68    30    31 ar  
    69    30    70 1   
    70    31    32 ar  
    71    31    71 1   
    72    32    33 1   
    73    32    34 ar  
    74    34    35 ar  
    75    34    72 1   
    76    35    73 1   
@<TRIPOS>SUBSTRUCTURE
     1 0MP         1 TEMP              0 ****  ****    0 ROOT
