@<TRIPOS>MOLECULE
0MQ
   32    32     1     0     0
SMALL
abcg2


@<TRIPOS>ATOM
      1 O6          -3.2310    -1.7730    -0.1910 o          1 0MQ      -0.976000
      2 P2          -1.7370    -1.6080    -0.4980 p5         1 0MQ       1.373000
      3 O4          -0.8310    -2.0780     0.6680 o          1 0MQ      -0.976000
      4 O5          -1.3390    -2.2770    -1.8310 o          1 0MQ      -0.976000
      5 C1          -1.3940     0.2050    -0.7550 c3         1 0MQ      -0.721700
      6 P1          -2.0950     1.4190     0.4710 p5         1 0MQ       1.373000
      7 O3          -1.7680     0.9360     1.8920 o          1 0MQ      -0.976000
      8 O2          -1.4080     2.7630     0.1340 o          1 0MQ      -0.976000
      9 O1          -3.6100     1.4830     0.1950 o          1 0MQ      -0.976000
     10 C2           0.0970     0.4260    -1.0170 c3         1 0MQ       0.252800
     11 N1           0.9180     0.0920     0.1370 n7         1 0MQ      -0.869400
     12 C3           2.2810    -0.2490    -0.1950 c6         1 0MQ       0.214500
     13 C4           3.0630     0.9630    -0.6990 c6         1 0MQ      -0.085900
     14 C5           4.5200     0.6200    -0.9950 c6         1 0MQ      -0.068400
     15 C6           5.2050     0.0120     0.2240 c6         1 0MQ      -0.062400
     16 C7           4.4350    -1.2000     0.7400 c6         1 0MQ      -0.068400
     17 C8           2.9790    -0.8470     1.0250 c6         1 0MQ      -0.085900
     18 H3          -1.8950     0.4590    -1.7000 hc         1 0MQ       0.011700
     19 H6           0.3940    -0.1830    -1.8900 h1         1 0MQ      -0.042300
     20 H7           0.2580     1.4720    -1.2960 h1         1 0MQ      -0.042300
     21 H8           0.4630    -0.7220     0.5590 hn         1 0MQ       0.520000
     22 H10          2.3240    -1.0130    -1.0010 h1         1 0MQ      -0.022300
     23 H11          2.5870     1.3700    -1.5950 hc         1 0MQ       0.053450
     24 H12          3.0140     1.7500     0.0640 hc         1 0MQ       0.053450
     25 H13          4.5640    -0.0930    -1.8270 hc         1 0MQ      -0.003300
     26 H14          5.0590     1.5120    -1.3260 hc         1 0MQ      -0.003300
     27 H15          6.2350    -0.2670    -0.0170 hc         1 0MQ      -0.009800
     28 H16          5.2640     0.7660     1.0170 hc         1 0MQ      -0.009800
     29 H17          4.4780    -2.0000    -0.0070 hc         1 0MQ      -0.003300
     30 H18          4.9110    -1.5950     1.6410 hc         1 0MQ      -0.003300
     31 H19          2.9300    -0.1230     1.8480 hc         1 0MQ       0.053450
     32 H20          2.4290    -1.7340     1.3560 hc         1 0MQ       0.053450
@<TRIPOS>BOND
     1     1     2 1   
     2     2     3 1   
     3     2     4 1   
     4     2     5 1   
     5     5     6 1   
     6     5    10 1   
     7     5    18 1   
     8     6     7 1   
     9     6     8 1   
    10     6     9 1   
    11    10    11 1   
    12    10    19 1   
    13    10    20 1   
    14    11    12 1   
    15    11    21 1   
    16    12    13 1   
    17    12    17 1   
    18    12    22 1   
    19    13    14 1   
    20    13    23 1   
    21    13    24 1   
    22    14    15 1   
    23    14    25 1   
    24    14    26 1   
    25    15    16 1   
    26    15    27 1   
    27    15    28 1   
    28    16    17 1   
    29    16    29 1   
    30    16    30 1   
    31    17    31 1   
    32    17    32 1   
@<TRIPOS>SUBSTRUCTURE
     1 0MQ         1 TEMP              0 ****  ****    0 ROOT
