@<TRIPOS>MOLECULE
0MQ
   32    32     1     0     0
SMALL
No Charge or Current Charge


@<TRIPOS>ATOM
      1 O6          -3.1080    -1.7590     0.0660 o          1 0MQ      -0.976000
      2 P2          -1.7170    -1.4850    -0.3950 p5         1 0MQ       1.373000
      3 O4          -0.7130    -1.9580     0.6040 o          1 0MQ      -0.976000
      4 O5          -1.4810    -2.2450    -1.6570 o          1 0MQ      -0.976000
      5 C1          -1.3860     0.2260    -0.7850 c3         1 0MQ      -0.721700
      6 P1          -2.1690     1.2550     0.4520 p5         1 0MQ       1.373000
      7 O3          -1.9290     0.8070     1.8550 o          1 0MQ      -0.976000
      8 O2          -1.6440     2.6440     0.2830 o          1 0MQ      -0.976000
      9 O1          -3.6330     1.3330     0.1710 o          1 0MQ      -0.976000
     10 C2           0.0700     0.5170    -1.0960 c3         1 0MQ       0.252800
     11 N1           0.9020     0.1660     0.0330 n7         1 0MQ      -0.869400
     12 C3           2.3000    -0.2030    -0.2410 c6         1 0MQ       0.214500
     13 C4           3.1440     1.0050    -0.7430 c6         1 0MQ      -0.085900
     14 C5           4.6180     0.5990    -0.9970 c6         1 0MQ      -0.068400
     15 C6           5.2540    -0.0340     0.2640 c6         1 0MQ      -0.062400
     16 C7           4.4180    -1.2360     0.7680 c6         1 0MQ      -0.068400
     17 C8           2.9460    -0.8280     1.0250 c6         1 0MQ      -0.085900
     18 H3          -1.9480     0.4250    -1.7020 hc         1 0MQ       0.011700
     19 H6           0.3560    -0.0940    -1.9620 h1         1 0MQ      -0.042300
     20 H7           0.2150     1.5680    -1.3760 h1         1 0MQ      -0.042300
     21 H8           0.4230    -0.6920     0.3830 hn         1 0MQ       0.520000
     22 H10          2.2940    -0.9730    -1.0260 h1         1 0MQ      -0.022300
     23 H11          2.7170     1.4090    -1.6700 hc         1 0MQ       0.053450
     24 H12          3.1100     1.8170    -0.0030 hc         1 0MQ       0.053450
     25 H13          4.6650    -0.1140    -1.8320 hc         1 0MQ      -0.003300
     26 H14          5.1990     1.4790    -1.3050 hc         1 0MQ      -0.003300
     27 H15          6.2780    -0.3590     0.0420 hc         1 0MQ      -0.009800
     28 H16          5.3310     0.7220     1.0580 hc         1 0MQ      -0.009800
     29 H17          4.4530    -2.0470     0.0270 hc         1 0MQ      -0.003300
     30 H18          4.8600    -1.6360     1.6900 hc         1 0MQ      -0.003300
     31 H19          2.9040    -0.1130     1.8580 hc         1 0MQ       0.053450
     32 H20          2.3720    -1.7090     1.3400 hc         1 0MQ       0.053450
@<TRIPOS>BOND
     1     1     2 1   
     2     2     3 1   
     3     2     4 1   
     4     2     5 1   
     5     5     6 1   
     6     5    10 1   
     7     5    18 1   
     8     6     7 1   
     9     6     8 1   
    10     6     9 1   
    11    10    11 1   
    12    10    19 1   
    13    10    20 1   
    14    11    12 1   
    15    11    21 1   
    16    12    13 1   
    17    12    17 1   
    18    12    22 1   
    19    13    14 1   
    20    13    23 1   
    21    13    24 1   
    22    14    15 1   
    23    14    25 1   
    24    14    26 1   
    25    15    16 1   
    26    15    27 1   
    27    15    28 1   
    28    16    17 1   
    29    16    29 1   
    30    16    30 1   
    31    17    31 1   
    32    17    32 1   
@<TRIPOS>SUBSTRUCTURE
     1 0MQ         1 TEMP              0 ****  ****    0 ROOT
