@<TRIPOS>MOLECULE
0MR
   66    70     1     0     0
SMALL
bcc


@<TRIPOS>ATOM
      1 C1          -2.4710     2.6430     0.3590 ca         1 0MR      -0.172000
      2 C2          -2.1220     2.9200    -0.9530 ca         1 0MR      -0.076000
      3 C3           5.6760     4.6160     3.0950 ca         1 0MR      -0.100000
      4 C4           6.8450     4.5210     2.3580 ca         1 0MR      -0.221300
      5 C5          -3.4810     1.7250     0.6060 ca         1 0MR      -0.065000
      6 C6          -2.7670     2.2920    -2.0100 ca         1 0MR      -0.228000
      7 C7           4.6110     3.7870     2.7760 ca         1 0MR      -0.184300
      8 C8           1.9230    -0.1150     0.1370 ca         1 0MR      -0.259000
      9 C9           2.8410    -1.4220    -2.1010 ca         1 0MR      -0.016000
     10 C10          6.9040     3.5950     1.3250 ca         1 0MR       0.410200
     11 C11         -4.1460     1.0880    -0.4350 ca         1 0MR      -0.187500
     12 C12         -5.0670    -0.9890     0.8040 cc         1 0MR      -0.426200
     13 C13          1.1080    -1.0710    -0.4620 ca         1 0MR       0.235600
     14 C14          3.1950     0.2160    -0.3330 ca         1 0MR       0.196600
     15 C15          3.6430    -0.4560    -1.4940 ca         1 0MR      -0.274200
     16 C16         -3.7810     1.3690    -1.7610 ca         1 0MR       0.169100
     17 C17          1.6060    -1.7350    -1.5990 ca         1 0MR      -0.052600
     18 C18         -5.1790     0.0940    -0.1170 cc         1 0MR       0.427800
     19 C19          4.7720     2.8960     1.7250 ca         1 0MR       0.339800
     20 C20         -6.2980    -1.5650     0.7780 cd         1 0MR       0.352000
     21 C22          3.6460     1.9790     1.3450 c          1 0MR       0.591600
     22 C23         -0.3840    -1.0840     1.4540 c6         1 0MR       0.174800
     23 C24         -1.2970    -1.0560    -0.7660 c6         1 0MR       0.174800
     24 C25         -1.5810    -1.8790     1.9460 c6         1 0MR       0.095500
     25 C26         -2.5090    -1.8320    -0.2890 c6         1 0MR       0.095500
     26 C27         -6.8870    -2.7360     1.4630 c3         1 0MR      -0.144400
     27 C28         -4.0320     0.8650    -4.0670 c3         1 0MR       0.123700
     28 N29          5.8910     2.8020     1.0170 nb         1 0MR      -0.661000
     29 N30         -6.3710     0.1350    -0.6370 nd         1 0MR      -0.332300
     30 N31         -0.1340    -1.3890     0.0560 nh         1 0MR      -0.643000
     31 N32         -2.7440    -1.6000     1.1240 n          1 0MR      -0.469800
     32 N33          3.9630     1.1750     0.2940 ns         1 0MR      -0.458100
     33 N34          4.9230    -0.2230    -2.1090 no         1 0MR       0.327200
     34 O35          5.1740    -0.7830    -3.1500 o          1 0MR      -0.220000
     35 O36         -4.1320    -1.4440     2.9020 o          1 0MR      -0.600100
     36 O37          2.5890     1.9980     1.9440 o          1 0MR      -0.575100
     37 O38          5.7150     0.5260    -1.5650 o          1 0MR      -0.220000
     38 O39         -7.0610    -0.9040    -0.0900 os         1 0MR      -0.115100
     39 O40         -4.4270     0.6890    -2.7200 os         1 0MR      -0.306900
     40 CL4          0.7290    -3.0390    -2.3150 cl         1 0MR      -0.083400
     41 H1          -1.9640     3.1300     1.1800 ha         1 0MR       0.143000
     42 H2          -1.3340     3.6310    -1.1660 ha         1 0MR       0.134000
     43 H4           7.6980     5.1490     2.5750 ha         1 0MR       0.149000
     44 H5          -3.7660     1.5050     1.6280 ha         1 0MR       0.148000
     45 H6          -2.4630     2.5270    -3.0210 ha         1 0MR       0.140000
     46 H7           3.6830     3.8310     3.3280 ha         1 0MR       0.166000
     47 H8           1.5510     0.4130     0.9970 ha         1 0MR       0.182000
     48 H9           3.2110    -1.9560    -2.9630 ha         1 0MR       0.181000
     49 H10          7.8020     3.4910     0.7270 h4         1 0MR       0.032100
     50 H11         -0.5690    -0.0130     1.6190 h1         1 0MR       0.057700
     51 H12          0.4830    -1.3710     2.0500 h1         1 0MR       0.057700
     52 H13         -1.1170    -1.3010    -1.8100 h1         1 0MR       0.057700
     53 H14         -1.4920     0.0210    -0.7090 h1         1 0MR       0.057700
     54 H15         -1.3530    -2.9490     1.9110 h1         1 0MR       0.066200
     55 H16         -1.7880    -1.6130     2.9790 h1         1 0MR       0.066200
     56 H17         -3.3770    -1.5530    -0.8810 h1         1 0MR       0.066200
     57 H18         -2.3360    -2.9020    -0.4500 h1         1 0MR       0.066200
     58 H19         -7.8100    -2.4620     1.9770 hc         1 0MR       0.070700
     59 H20         -7.1240    -3.5250     0.7490 hc         1 0MR       0.070700
     60 H21         -6.1940    -3.1340     2.1980 hc         1 0MR       0.070700
     61 H22         -4.1970     1.8890    -4.4110 h1         1 0MR       0.044033
     62 H23         -2.9810     0.6050    -4.2200 h1         1 0MR       0.044033
     63 H24         -4.6490     0.1930    -4.6570 h1         1 0MR       0.044033
     64 H25          4.8970     1.3240    -0.0760 hn         1 0MR       0.392500
     65 C21         -3.9430    -1.3690     1.6940 c          1 0MR       0.722700
     66 H3           5.5920     5.3240     3.9080 ha         1 0MR       0.146000
@<TRIPOS>BOND
     1     1     2 ar  
     2     1     5 ar  
     3     1    41 1   
     4     2     6 ar  
     5     2    42 1   
     6     3     4 ar  
     7     3     7 ar  
     8     3    66 1   
     9     4    10 ar  
    10     4    43 1   
    11     5    11 ar  
    12     5    44 1   
    13     6    16 ar  
    14     6    45 1   
    15     7    19 ar  
    16     7    46 1   
    17     8    13 ar  
    18     8    14 ar  
    19     8    47 1   
    20     9    15 ar  
    21     9    17 ar  
    22     9    48 1   
    23    10    28 ar  
    24    10    49 1   
    25    11    16 ar  
    26    11    18 1   
    27    12    18 1   
    28    12    20 2   
    29    12    65 1   
    30    13    17 ar  
    31    13    30 1   
    32    14    15 ar  
    33    14    32 1   
    34    15    33 1   
    35    16    39 1   
    36    17    40 1   
    37    18    29 2   
    38    19    21 1   
    39    19    28 ar  
    40    20    26 1   
    41    20    38 1   
    42    21    32 1   
    43    21    36 2   
    44    22    24 1   
    45    22    30 1   
    46    22    50 1   
    47    22    51 1   
    48    23    25 1   
    49    23    30 1   
    50    23    52 1   
    51    23    53 1   
    52    24    31 1   
    53    24    54 1   
    54    24    55 1   
    55    25    31 1   
    56    25    56 1   
    57    25    57 1   
    58    26    58 1   
    59    26    59 1   
    60    26    60 1   
    61    27    39 1   
    62    27    61 1   
    63    27    62 1   
    64    27    63 1   
    65    29    38 1   
    66    31    65 1   
    67    32    64 1   
    68    33    34 1   
    69    33    37 1   
    70    35    65 2   
@<TRIPOS>SUBSTRUCTURE
     1 0MR         1 TEMP              0 ****  ****    0 ROOT
