@<TRIPOS>MOLECULE
0MR
   66    70     1     0     0
SMALL
No Charge or Current Charge


@<TRIPOS>ATOM
      1 C1          -2.4770     2.2160     0.8670 ca         1 0MR      -0.154000
      2 C2          -2.1730     2.9040    -0.3140 ca         1 0MR      -0.058000
      3 C3           5.5960     5.4080     2.1300 ca         1 0MR      -0.082000
      4 C4           6.9110     4.9400     1.9890 ca         1 0MR      -0.138000
      5 C5          -3.4710     1.2260     0.8690 ca         1 0MR      -0.047000
      6 C6          -2.8740     2.6080    -1.4920 ca         1 0MR      -0.210000
      7 C7           4.5430     4.5680     1.7270 ca         1 0MR      -0.101000
      8 C8           2.0280    -0.2020     0.1950 ca         1 0MR      -0.241000
      9 C9           3.2380    -2.0440    -1.5260 ca         1 0MR       0.002000
     10 C10          7.1270     3.6600     1.4560 ca         1 0MR       0.344900
     11 C11         -4.1670     0.8880    -0.3150 ca         1 0MR      -0.187500
     12 C12         -5.2720    -1.2760     0.5750 cc         1 0MR      -0.295600
     13 C13          1.2930    -1.3080    -0.2600 ca         1 0MR       0.374000
     14 C14          3.3650     0.0120    -0.1990 ca         1 0MR       0.104000
     15 C15          3.9830    -0.9370    -1.0580 ca         1 0MR      -0.274200
     16 C16         -3.8790     1.6120    -1.5010 ca         1 0MR       0.169100
     17 C17          1.9050    -2.2290    -1.1370 ca         1 0MR       0.039000
     18 C18         -5.2310    -0.1350    -0.2710 cc         1 0MR       0.362500
     19 C19          4.8290     3.2880     1.1970 ca         1 0MR       0.274500
     20 C20         -6.5490    -1.7270     0.4940 cd         1 0MR       0.242300
     21 C22          3.6810     2.3760     0.7600 c          1 0MR       0.524600
     22 C23         -0.4270    -1.2920     1.5830 c6         1 0MR       0.174800
     23 C24         -1.1360    -1.0610    -0.7740 c6         1 0MR       0.174800
     24 C25         -1.7600    -2.0120     1.9250 c6         1 0MR       0.095500
     25 C26         -2.4680    -1.7860    -0.4460 c6         1 0MR       0.095500
     26 C27         -7.2340    -2.9060     1.1300 c3         1 0MR      -0.144400
     27 C28         -4.2940     1.9430    -3.9210 c3         1 0MR       0.146900
     28 N29          6.1170     2.8460     1.0670 nb         1 0MR      -0.661000
     29 N30         -6.3970     0.0810    -0.8680 nd         1 0MR      -0.332300
     30 N31         -0.0500    -1.4710     0.1540 nh         1 0MR      -0.781400
     31 N32         -2.8740    -1.6730     0.9920 n          1 0MR      -0.402800
     32 N33          4.0890     1.1480     0.2550 ns         1 0MR      -0.132000
     33 N34          5.4010    -0.7980    -1.5090 no         1 0MR       0.707200
     34 O35          5.6970    -1.2460    -2.6230 o          1 0MR      -0.410000
     35 O36         -4.4580    -2.5920     2.3660 o          1 0MR      -0.600100
     36 O37          2.5020     2.7170     0.8360 o          1 0MR      -0.575100
     37 O38          6.2310    -0.3550    -0.7070 o          1 0MR      -0.410000
     38 O39         -7.2540    -0.9640    -0.3910 os         1 0MR      -0.070700
     39 O40         -4.5380     1.2770    -2.6690 os         1 0MR      -0.330100
     40 Cl4          1.0350    -3.6460    -1.7450 cl         1 0MR      -0.175000
     41 H1          -1.9480     2.4560     1.7860 ha         1 0MR       0.125000
     42 H2          -1.4010     3.6710    -0.3140 ha         1 0MR       0.116000
     43 H4           7.7560     5.5550     2.2870 ha         1 0MR       0.131000
     44 H5          -3.7120     0.7390     1.8110 ha         1 0MR       0.130000
     45 H6          -2.6180     3.1610    -2.3900 ha         1 0MR       0.122000
     46 H7           3.5140     4.9050     1.8250 ha         1 0MR       0.148000
     47 H8           1.5360     0.4930     0.8640 ha         1 0MR       0.164000
     48 H9           3.6930    -2.7770    -2.1910 ha         1 0MR       0.163000
     49 H10          8.1380     3.2720     1.3360 h4         1 0MR       0.032100
     50 H11         -0.5420    -0.2210     1.8080 h1         1 0MR       0.057700
     51 H12          0.3640    -1.6840     2.2400 h1         1 0MR       0.057700
     52 H13         -0.8610    -1.2870    -1.8150 h1         1 0MR       0.057700
     53 H14         -1.2940     0.0250    -0.7080 h1         1 0MR       0.057700
     54 H15         -1.5940    -3.0980     1.8950 h1         1 0MR       0.066200
     55 H16         -2.0450    -1.7520     2.9540 h1         1 0MR       0.066200
     56 H17         -3.2470    -1.4250    -1.1250 h1         1 0MR       0.066200
     57 H18         -2.3360    -2.8520    -0.6750 h1         1 0MR       0.066200
     58 H19         -7.3190    -2.7690     2.2140 hc         1 0MR       0.070700
     59 H20         -8.2450    -3.0420     0.7280 hc         1 0MR       0.070700
     60 H21         -6.6740    -3.8300     0.9460 hc         1 0MR       0.070700
     61 H22         -4.5140     3.0150    -3.8420 h1         1 0MR       0.044033
     62 H23         -3.2490     1.8180    -4.2320 h1         1 0MR       0.044033
     63 H24         -4.9340     1.5220    -4.7060 h1         1 0MR       0.044033
     64 H25          5.0970     1.0420     0.2230 hn         1 0MR       0.226000
     65 C21         -4.2080    -1.8980     1.3900 c          1 0MR       0.655700
     66 H3           5.3950     6.3970     2.5390 ha         1 0MR       0.128000
@<TRIPOS>BOND
     1     1     2 ar  
     2     1     5 ar  
     3     1    41 1   
     4     2     6 ar  
     5     2    42 1   
     6     3     4 ar  
     7     3     7 ar  
     8     3    66 1   
     9     4    10 ar  
    10     4    43 1   
    11     5    11 ar  
    12     5    44 1   
    13     6    16 ar  
    14     6    45 1   
    15     7    19 ar  
    16     7    46 1   
    17     8    13 ar  
    18     8    14 ar  
    19     8    47 1   
    20     9    15 ar  
    21     9    17 ar  
    22     9    48 1   
    23    10    28 ar  
    24    10    49 1   
    25    11    16 ar  
    26    11    18 1   
    27    12    18 1   
    28    12    20 2   
    29    12    65 1   
    30    13    17 ar  
    31    13    30 1   
    32    14    15 ar  
    33    14    32 1   
    34    15    33 1   
    35    16    39 1   
    36    17    40 1   
    37    18    29 2   
    38    19    21 1   
    39    19    28 ar  
    40    20    26 1   
    41    20    38 1   
    42    21    32 1   
    43    21    36 2   
    44    22    24 1   
    45    22    30 1   
    46    22    50 1   
    47    22    51 1   
    48    23    25 1   
    49    23    30 1   
    50    23    52 1   
    51    23    53 1   
    52    24    31 1   
    53    24    54 1   
    54    24    55 1   
    55    25    31 1   
    56    25    56 1   
    57    25    57 1   
    58    26    58 1   
    59    26    59 1   
    60    26    60 1   
    61    27    39 1   
    62    27    61 1   
    63    27    62 1   
    64    27    63 1   
    65    29    38 1   
    66    31    65 1   
    67    32    64 1   
    68    33    34 1   
    69    33    37 1   
    70    35    65 2   
@<TRIPOS>SUBSTRUCTURE
     1 0MR         1 TEMP              0 ****  ****    0 ROOT
