@<TRIPOS>MOLECULE
0MS
   49    52     1     0     0
SMALL
No Charge or Current Charge


@<TRIPOS>ATOM
      1 C1          -1.8160     1.7970     2.1990 ca         1 0MS      -0.114000
      2 C2          -1.4870     2.9890     1.5400 ca         1 0MS      -0.085000
      3 C3          -2.6980     0.8820     1.6020 ca         1 0MS      -0.076000
      4 C4          -2.0500     3.2650     0.2860 ca         1 0MS      -0.107000
      5 C5           4.7650    -1.1770    -0.2500 ca         1 0MS      -0.038000
      6 C6           3.9170     1.0910    -0.2090 ca         1 0MS       0.394900
      7 C7          -3.2550     1.1280     0.3240 ca         1 0MS      -0.137500
      8 C8          -4.1980    -1.2470    -0.0700 cc         1 0MS      -0.288600
      9 C9           3.4330    -1.6220    -0.1580 ca         1 0MS      -0.136300
     10 C10         -2.9360     2.3550    -0.3180 ca         1 0MS       0.143000
     11 C11          5.0060     0.2040    -0.2740 ca         1 0MS      -0.104900
     12 C12         -4.2110     0.1620    -0.2520 cc         1 0MS       0.348500
     13 C13         -5.4150    -1.6680    -0.4980 cd         1 0MS       0.242300
     14 C14          2.4030    -0.6490    -0.0870 ca         1 0MS       0.583900
     15 C16          0.0030    -0.2170    -0.6880 c6         1 0MS       0.181300
     16 C17          0.5540    -1.5230     1.3240 c6         1 0MS       0.181300
     17 C18         -1.2900    -1.0520    -0.8860 c6         1 0MS       0.093500
     18 C19         -0.7390    -2.3670     1.1520 c6         1 0MS       0.093500
     19 C21         -6.0250    -3.0400    -0.5860 c3         1 0MS      -0.142400
     20 N22          2.6340     0.6760    -0.1170 nb         1 0MS      -0.728000
     21 N23         -5.3490     0.5820    -0.7890 nd         1 0MS      -0.332300
     22 N24          1.0480    -1.0000     0.0250 nh         1 0MS      -0.751300
     23 N25         -1.8080    -1.6720     0.3770 n          1 0MS      -0.399800
     24 O26         -3.3890    -3.2260     0.9450 o          1 0MS      -0.601100
     25 O27         -6.1290    -0.6060    -0.9730 os         1 0MS      -0.065700
     26 Cl2         -3.5160     2.7580    -1.9360 cl         1 0MS      -0.186000
     27 Br2          6.7960     0.8690    -0.4020 br         1 0MS      -0.081100
     28 H1          -1.3950     1.5850     3.1800 ha         1 0MS       0.122000
     29 H2          -0.8020     3.6980     2.0010 ha         1 0MS       0.122000
     30 H3          -2.9650    -0.0140     2.1570 ha         1 0MS       0.130000
     31 H4          -1.7920     4.1880    -0.2290 ha         1 0MS       0.134000
     32 H5           5.5900    -1.8830    -0.3060 ha         1 0MS       0.132000
     33 H6           4.0780     2.1690    -0.2290 h4         1 0MS       0.033100
     34 H7           0.3680     0.1000    -1.6760 h1         1 0MS       0.055950
     35 H8          -0.2410     0.6920    -0.1200 h1         1 0MS       0.055950
     36 H9           0.3380    -0.6830     2.0010 h1         1 0MS       0.055950
     37 H10          1.3180    -2.1440     1.8140 h1         1 0MS       0.055950
     38 H11         -2.0430    -0.4290    -1.3800 h1         1 0MS       0.061200
     39 H12         -1.0620    -1.8650    -1.5890 h1         1 0MS       0.061200
     40 H13         -0.4850    -3.3050     0.6380 h1         1 0MS       0.061200
     41 H14         -1.1190    -2.6320     2.1490 h1         1 0MS       0.061200
     42 H15          3.0240    -3.4990     0.8660 hc         1 0MS       0.047700
     43 H16          2.2240    -3.3550    -0.7100 hc         1 0MS       0.047700
     44 H17          3.9530    -3.6880    -0.6270 hc         1 0MS       0.047700
     45 H18         -6.2010    -3.4540     0.4130 hc         1 0MS       0.071367
     46 H19         -6.9860    -3.0150    -1.1130 hc         1 0MS       0.071367
     47 H20         -5.3640    -3.7280    -1.1270 hc         1 0MS       0.071367
     48 C15         -3.1390    -2.1320     0.4600 c          1 0MS       0.652700
     49 C20          3.1410    -3.1220    -0.1570 c3         1 0MS      -0.039800
@<TRIPOS>BOND
     1     1     2 ar  
     2     1     3 ar  
     3     1    28 1   
     4     2     4 ar  
     5     2    29 1   
     6     3     7 ar  
     7     3    30 1   
     8     4    10 ar  
     9     4    31 1   
    10     5     9 ar  
    11     5    11 ar  
    12     5    32 1   
    13     6    11 ar  
    14     6    20 ar  
    15     6    33 1   
    16     7    10 ar  
    17     7    12 1   
    18     8    12 1   
    19     8    13 2   
    20     8    48 1   
    21     9    14 ar  
    22     9    49 1   
    23    10    26 1   
    24    11    27 1   
    25    12    21 2   
    26    13    19 1   
    27    13    25 1   
    28    14    20 ar  
    29    14    22 1   
    30    15    17 1   
    31    15    22 1   
    32    15    34 1   
    33    15    35 1   
    34    16    18 1   
    35    16    22 1   
    36    16    36 1   
    37    16    37 1   
    38    17    23 1   
    39    17    38 1   
    40    17    39 1   
    41    18    23 1   
    42    18    40 1   
    43    18    41 1   
    44    19    45 1   
    45    19    46 1   
    46    19    47 1   
    47    21    25 1   
    48    23    48 1   
    49    24    48 2   
    50    42    49 1   
    51    43    49 1   
    52    44    49 1   
@<TRIPOS>SUBSTRUCTURE
     1 0MS         1 TEMP              0 ****  ****    0 ROOT
