@<TRIPOS>MOLECULE
0MS
   49    52     1     0     0
SMALL
abcg2


@<TRIPOS>ATOM
      1 C1          -1.7510     1.8610     2.3960 ca         1 0MS      -0.114000
      2 C2          -1.2160     2.8850     1.6260 ca         1 0MS      -0.085000
      3 C3          -2.7110     1.0250     1.8540 ca         1 0MS      -0.076000
      4 C4          -1.6350     3.0630     0.3170 ca         1 0MS      -0.107000
      5 C5           4.5610    -0.9160    -0.1150 ca         1 0MS      -0.038000
      6 C6           3.5240     1.1870    -0.5460 ca         1 0MS       0.394900
      7 C7          -3.1550     1.1900     0.5430 ca         1 0MS      -0.137500
      8 C8          -4.0960    -1.1690     0.0380 cc         1 0MS      -0.288600
      9 C9           3.3110    -1.5060    -0.0540 ca         1 0MS      -0.136300
     10 C10         -2.5960     2.2160    -0.2160 ca         1 0MS       0.143000
     11 C11          4.6740     0.4480    -0.3500 ca         1 0MS      -0.104900
     12 C12         -4.1570     0.2530     0.0170 cc         1 0MS       0.348500
     13 C13         -5.2840    -1.5490    -0.5020 cd         1 0MS       0.242300
     14 C14          2.1930    -0.6560    -0.2050 ca         1 0MS       0.583900
     15 C16         -0.1520    -0.3750    -0.7460 c6         1 0MS       0.181300
     16 C17          0.4690    -1.7560     1.1080 c6         1 0MS       0.181300
     17 C18         -1.3700    -1.2520    -0.9810 c6         1 0MS       0.093500
     18 C19         -0.7360    -2.6510     0.8950 c6         1 0MS       0.093500
     19 C21         -5.8950    -2.8660    -0.7800 c3         1 0MS      -0.142400
     20 N22          2.3210     0.6380    -0.4640 nb         1 0MS      -0.728000
     21 N23         -5.2800     0.6630    -0.4950 nd         1 0MS      -0.332300
     22 N24          0.9040    -1.1750    -0.1540 nh         1 0MS      -0.751300
     23 N25         -1.7970    -1.9030     0.2450 n          1 0MS      -0.399800
     24 O26         -3.4220    -2.8870     1.4750 o          1 0MS      -0.601100
     25 O27         -5.9730    -0.4570    -0.8300 os         1 0MS      -0.065700
     26 CL2         -3.0290     2.4140    -1.8800 cl         1 0MS      -0.186000
     27 BR2          6.3640     1.2730    -0.4440 br         1 0MS      -0.081100
     28 H1          -1.4220     1.7140     3.4160 ha         1 0MS       0.122000
     29 H2          -0.4650     3.5450     2.0380 ha         1 0MS       0.122000
     30 H3          -3.1380     0.2350     2.4590 ha         1 0MS       0.130000
     31 H4          -1.2100     3.8480    -0.2920 ha         1 0MS       0.134000
     32 H5           5.4450    -1.5340    -0.0120 ha         1 0MS       0.132000
     33 H6           3.5640     2.2480    -0.7710 h4         1 0MS       0.033100
     34 H7           0.1780     0.0160    -1.7070 h1         1 0MS       0.055950
     35 H8          -0.4210     0.4830    -0.1180 h1         1 0MS       0.055950
     36 H9           0.2160    -0.9640     1.8280 h1         1 0MS       0.055950
     37 H10          1.2620    -2.3480     1.5580 h1         1 0MS       0.055950
     38 H11         -2.1730    -0.6580    -1.4100 h1         1 0MS       0.061200
     39 H12         -1.1220    -2.0230    -1.7180 h1         1 0MS       0.061200
     40 H13         -0.4540    -3.5130     0.2810 h1         1 0MS       0.061200
     41 H14         -1.0850    -3.0230     1.8540 h1         1 0MS       0.061200
     42 H15          3.0930    -3.3060     1.1270 hc         1 0MS       0.047700
     43 H16          2.3250    -3.3710    -0.4550 hc         1 0MS       0.047700
     44 H17          4.0820    -3.4830    -0.3090 hc         1 0MS       0.047700
     45 H18         -6.7430    -3.0460    -0.1180 hc         1 0MS       0.071367
     46 H19         -6.2540    -2.9210    -1.8080 hc         1 0MS       0.071367
     47 H20         -5.1710    -3.6600    -0.6220 hc         1 0MS       0.071367
     48 C15         -3.0760    -2.0660     0.6350 c          1 0MS       0.652700
     49 C20          3.1930    -2.9930     0.0860 c3         1 0MS      -0.039800
@<TRIPOS>BOND
     1     1     2 ar  
     2     1     3 ar  
     3     1    28 1   
     4     2     4 ar  
     5     2    29 1   
     6     3     7 ar  
     7     3    30 1   
     8     4    10 ar  
     9     4    31 1   
    10     5     9 ar  
    11     5    11 ar  
    12     5    32 1   
    13     6    11 ar  
    14     6    20 ar  
    15     6    33 1   
    16     7    10 ar  
    17     7    12 1   
    18     8    12 1   
    19     8    13 2   
    20     8    48 1   
    21     9    14 ar  
    22     9    49 1   
    23    10    26 1   
    24    11    27 1   
    25    12    21 2   
    26    13    19 1   
    27    13    25 1   
    28    14    20 ar  
    29    14    22 1   
    30    15    17 1   
    31    15    22 1   
    32    15    34 1   
    33    15    35 1   
    34    16    18 1   
    35    16    22 1   
    36    16    36 1   
    37    16    37 1   
    38    17    23 1   
    39    17    38 1   
    40    17    39 1   
    41    18    23 1   
    42    18    40 1   
    43    18    41 1   
    44    19    45 1   
    45    19    46 1   
    46    19    47 1   
    47    21    25 1   
    48    23    48 1   
    49    24    48 2   
    50    42    49 1   
    51    43    49 1   
    52    44    49 1   
@<TRIPOS>SUBSTRUCTURE
     1 0MS         1 TEMP              0 ****  ****    0 ROOT
