@<TRIPOS>MOLECULE
0MT
   48    52     1     0     0
SMALL
No Charge or Current Charge


@<TRIPOS>ATOM
      1 CAO          2.5440    -0.5010    -1.4360 ca         1 0MT      -0.140500
      2 CAI          3.8520    -0.0910    -1.7450 ca         1 0MT      -0.078000
      3 CAW          4.9010    -0.2540    -0.8130 ca         1 0MT      -0.125600
      4 CAU          6.3170     0.1880    -1.1440 c          1 0MT       0.712600
      5 OAD          7.1940     0.0200    -0.3070 o          1 0MT      -0.714500
      6 OAA          6.5320     0.6990    -2.2340 o          1 0MT      -0.714500
      7 CAJ          4.6000    -0.8590     0.4280 ca         1 0MT      -0.078000
      8 CAP          3.2900    -1.2690     0.7310 ca         1 0MT      -0.140500
      9 CAZ          2.2310    -1.0430    -0.1720 ca         1 0MT      -0.092000
     10 NBF          0.9110    -1.5850     0.0600 n          1 0MT      -0.226400
     11 CAV          0.5770    -2.7100     0.8590 c          1 0MT       0.610600
     12 OAB          1.3270    -3.4620     1.4680 o          1 0MT      -0.510000
     13 CBC         -0.8800    -2.7770     0.7920 cc         1 0MT      -0.225600
     14 NAT         -1.9410    -3.5110     1.2980 na         1 0MT       0.055800
     15 NAS         -3.1750    -3.0050     0.8640 nc         1 0MT      -0.521800
     16 CBB         -2.8490    -1.9750     0.0820 cd         1 0MT       0.338500
     17 CAX         -3.8660    -1.1230    -0.5720 ca         1 0MT      -0.113500
     18 CAK         -3.5380    -0.3520    -1.7090 ca         1 0MT      -0.087500
     19 CAG         -4.5100     0.4400    -2.3440 ca         1 0MT      -0.116500
     20 CAF         -5.8270     0.4620    -1.8600 ca         1 0MT      -0.107000
     21 CAH         -6.1730    -0.3170    -0.7450 ca         1 0MT      -0.116500
     22 CAL         -5.2020    -1.1100    -0.1090 ca         1 0MT      -0.087500
     23 CBD         -1.4480    -1.8360     0.0310 cd         1 0MT      -0.205300
     24 CBE         -0.3300    -0.9960    -0.5340 c5         1 0MT       0.243300
     25 CAY         -0.5240     0.4160     0.0310 ca         1 0MT      -0.035300
     26 CAM         -0.6420     0.6510     1.4170 ca         1 0MT      -0.095000
     27 CAQ         -0.8250     1.9530     1.9140 ca         1 0MT      -0.047000
     28 CBA         -0.8930     3.0540     1.0300 ca         1 0MT      -0.173200
     29 NBG         -1.0890     4.4430     1.5550 no         1 0MT       0.698200
     30 OAE         -1.1920     4.5980     2.7800 o          1 0MT      -0.407000
     31 OAC         -1.1420     5.3760     0.7420 o          1 0MT      -0.407000
     32 CAR         -0.7690     2.8200    -0.3590 ca         1 0MT      -0.047000
     33 CAN         -0.5860     1.5150    -0.8470 ca         1 0MT      -0.095000
     34 H1           1.7740    -0.3850    -2.1940 ha         1 0MT       0.094500
     35 H2           4.0500     0.3460    -2.7220 ha         1 0MT       0.133500
     36 H4           5.3850    -1.0200     1.1640 ha         1 0MT       0.133500
     37 H5           3.1050    -1.7300     1.6970 ha         1 0MT       0.094500
     38 H6          -1.8800    -4.3150     1.9230 hn         1 0MT       0.387000
     39 H7          -2.5320    -0.3690    -2.1160 ha         1 0MT       0.120500
     40 H8          -4.2420     1.0340    -3.2150 ha         1 0MT       0.111000
     41 H9          -6.5800     1.0750    -2.3520 ha         1 0MT       0.109000
     42 H10         -7.1950    -0.3080    -0.3720 ha         1 0MT       0.111000
     43 H11         -5.4900    -1.7060     0.7540 ha         1 0MT       0.120500
     44 H12         -0.3310    -1.0350    -1.6310 h1         1 0MT       0.080700
     45 H13         -0.5940    -0.1780     2.1190 ha         1 0MT       0.129500
     46 H14         -0.9140     2.0960     2.9900 ha         1 0MT       0.148000
     47 H15         -0.8140     3.6440    -1.0690 ha         1 0MT       0.148000
     48 H16         -0.4920     1.3600    -1.9200 ha         1 0MT       0.129500
@<TRIPOS>BOND
     1     1     2 ar  
     2     1     9 ar  
     3     1    34 1   
     4     2     3 ar  
     5     2    35 1   
     6     3     4 1   
     7     3     7 ar  
     8     4     5 1   
     9     4     6 1   
    10     7     8 ar  
    11     7    36 1   
    12     8     9 ar  
    13     8    37 1   
    14     9    10 1   
    15    10    11 1   
    16    10    24 1   
    17    11    12 2   
    18    11    13 1   
    19    13    14 1   
    20    13    23 2   
    21    14    15 1   
    22    14    38 1   
    23    15    16 2   
    24    16    17 1   
    25    16    23 1   
    26    17    18 ar  
    27    17    22 ar  
    28    18    19 ar  
    29    18    39 1   
    30    19    20 ar  
    31    19    40 1   
    32    20    21 ar  
    33    20    41 1   
    34    21    22 ar  
    35    21    42 1   
    36    22    43 1   
    37    23    24 1   
    38    24    25 1   
    39    24    44 1   
    40    25    26 ar  
    41    25    33 ar  
    42    26    27 ar  
    43    26    45 1   
    44    27    28 ar  
    45    27    46 1   
    46    28    29 1   
    47    28    32 ar  
    48    29    30 1   
    49    29    31 1   
    50    32    33 ar  
    51    32    47 1   
    52    33    48 1   
@<TRIPOS>SUBSTRUCTURE
     1 0MT         1 TEMP              0 ****  ****    0 ROOT
