@<TRIPOS>MOLECULE
0MT
   48    52     1     0     0
SMALL
abcg2


@<TRIPOS>ATOM
      1 CAO          2.5470    -0.8530    -1.5270 ca         1 0MT      -0.140500
      2 CAI          3.8150    -0.3280    -1.7230 ca         1 0MT      -0.078000
      3 CAW          4.6830    -0.1300    -0.6530 ca         1 0MT      -0.125600
      4 CAU          6.0770     0.4450    -0.8720 c          1 0MT       0.712600
      5 OAD          6.7840     0.5890     0.1430 o          1 0MT      -0.714500
      6 OAA          6.3850     0.7230    -2.0460 o          1 0MT      -0.714500
      7 CAJ          4.2420    -0.4670     0.6240 ca         1 0MT      -0.078000
      8 CAP          2.9720    -0.9770     0.8360 ca         1 0MT      -0.140500
      9 CAZ          2.1190    -1.1760    -0.2440 ca         1 0MT      -0.092000
     10 NBF          0.8140    -1.6710    -0.0430 n          1 0MT      -0.226400
     11 CAV          0.5250    -2.8290     0.6390 c          1 0MT       0.610600
     12 OAB          1.3150    -3.5960     1.1400 o          1 0MT      -0.510000
     13 CBC         -0.9400    -2.8890     0.5920 cc         1 0MT      -0.225600
     14 NAT         -1.9560    -3.6410     1.0250 na         1 0MT       0.055800
     15 NAS         -3.1200    -3.1260     0.6600 nc         1 0MT      -0.521800
     16 CBB         -2.8600    -2.0150    -0.0260 cd         1 0MT       0.338500
     17 CAX         -3.9390    -1.1840    -0.5590 ca         1 0MT      -0.113500
     18 CAK         -3.6680    -0.1890    -1.4960 ca         1 0MT      -0.087500
     19 CAG         -4.6850     0.6100    -1.9960 ca         1 0MT      -0.116500
     20 CAF         -5.9910     0.4240    -1.5680 ca         1 0MT      -0.107000
     21 CAH         -6.2730    -0.5700    -0.6390 ca         1 0MT      -0.116500
     22 CAL         -5.2580    -1.3670    -0.1370 ca         1 0MT      -0.087500
     23 CBD         -1.4660    -1.8380    -0.0910 cd         1 0MT      -0.205300
     24 CBE         -0.3580    -0.9590    -0.5710 c5         1 0MT       0.243300
     25 CAY         -0.4140     0.4570    -0.0520 ca         1 0MT      -0.035300
     26 CAM         -0.5260     0.6990     1.3140 ca         1 0MT      -0.095000
     27 CAQ         -0.5720     1.9900     1.7980 ca         1 0MT      -0.047000
     28 CBA         -0.5080     3.0460     0.8980 ca         1 0MT      -0.173200
     29 NBG         -0.5630     4.4120     1.4000 no         1 0MT       0.698200
     30 OAE         -0.6610     4.5720     2.5930 o          1 0MT      -0.407000
     31 OAC         -0.5080     5.3120     0.5980 o          1 0MT      -0.407000
     32 CAR         -0.3910     2.8320    -0.4640 ca         1 0MT      -0.047000
     33 CAN         -0.3390     1.5290    -0.9280 ca         1 0MT      -0.095000
     34 H1           1.8990    -1.0190    -2.3780 ha         1 0MT       0.094500
     35 H2           4.1380    -0.0770    -2.7240 ha         1 0MT       0.133500
     36 H4           4.9010    -0.3140     1.4690 ha         1 0MT       0.133500
     37 H5           2.6400    -1.2030     1.8400 ha         1 0MT       0.094500
     38 H6          -1.9330    -4.4940     1.5600 hn         1 0MT       0.387000
     39 H7          -2.6590    -0.0360    -1.8560 ha         1 0MT       0.120500
     40 H8          -4.4560     1.3780    -2.7230 ha         1 0MT       0.111000
     41 H9          -6.7850     1.0500    -1.9530 ha         1 0MT       0.109000
     42 H10         -7.2890    -0.7210    -0.2990 ha         1 0MT       0.111000
     43 H11         -5.4850    -2.1320     0.5930 ha         1 0MT       0.120500
     44 H12         -0.3150    -0.9440    -1.6660 h1         1 0MT       0.080700
     45 H13         -0.5810    -0.1250     2.0140 ha         1 0MT       0.129500
     46 H14         -0.6590     2.1620     2.8600 ha         1 0MT       0.148000
     47 H15         -0.3370     3.6540    -1.1610 ha         1 0MT       0.148000
     48 H16         -0.2360     1.3560    -1.9920 ha         1 0MT       0.129500
@<TRIPOS>BOND
     1     1     2 ar  
     2     1     9 ar  
     3     1    34 1   
     4     2     3 ar  
     5     2    35 1   
     6     3     4 1   
     7     3     7 ar  
     8     4     5 1   
     9     4     6 1   
    10     7     8 ar  
    11     7    36 1   
    12     8     9 ar  
    13     8    37 1   
    14     9    10 1   
    15    10    11 1   
    16    10    24 1   
    17    11    12 2   
    18    11    13 1   
    19    13    14 1   
    20    13    23 2   
    21    14    15 1   
    22    14    38 1   
    23    15    16 2   
    24    16    17 1   
    25    16    23 1   
    26    17    18 ar  
    27    17    22 ar  
    28    18    19 ar  
    29    18    39 1   
    30    19    20 ar  
    31    19    40 1   
    32    20    21 ar  
    33    20    41 1   
    34    21    22 ar  
    35    21    42 1   
    36    22    43 1   
    37    23    24 1   
    38    24    25 1   
    39    24    44 1   
    40    25    26 ar  
    41    25    33 ar  
    42    26    27 ar  
    43    26    45 1   
    44    27    28 ar  
    45    27    46 1   
    46    28    29 1   
    47    28    32 ar  
    48    29    30 1   
    49    29    31 1   
    50    32    33 ar  
    51    32    47 1   
    52    33    48 1   
@<TRIPOS>SUBSTRUCTURE
     1 0MT         1 TEMP              0 ****  ****    0 ROOT
