@<TRIPOS>MOLECULE
0MU
   49    49     1     0     0
SMALL
abcg2


@<TRIPOS>ATOM
      1 S1          -2.7090    -2.8800     0.7270 ss         1 0MU      -0.526000
      2 C2          -4.1590    -2.0330     0.0660 c6         1 0MU       0.073600
      3 C3          -4.1900    -0.5740     0.5030 c6         1 0MU      -0.163000
      4 C5          -5.2080     0.1420    -0.3890 c3         1 0MU       0.183600
      5 C4          -2.8500     0.1280     0.4440 ce         1 0MU       0.405300
      6 C9          -2.8380     1.6080     0.8140 c          1 0MU       0.642700
      7 O4A         -3.0130     1.8240     2.0250 o          1 0MU      -0.693500
      8 O4B         -2.6380     2.4160    -0.1050 o          1 0MU      -0.693500
      9 N5          -1.7240    -0.3810     0.1600 n2         1 0MU      -0.616900
     10 C6          -1.5290    -1.7720    -0.1080 c6         1 0MU       0.281500
     11 C7          -0.1130    -2.1800     0.3240 c3         1 0MU       0.016700
     12 C8           0.1630    -3.5920    -0.1820 c          1 0MU       0.594900
     13 O9           0.2850    -3.8530    -1.3500 o          1 0MU      -0.528100
     14 N10          0.8290    -1.2480    -0.2340 ns         1 0MU      -0.478900
     15 C11          2.1470    -1.4850    -0.1410 c          1 0MU       0.597100
     16 O12          2.5660    -2.5390     0.3230 o          1 0MU      -0.650100
     17 C13          3.0560    -0.4060    -0.6750 c3         1 0MU      -0.150400
     18 C14          4.3010    -0.2020     0.1820 c3         1 0MU      -0.070400
     19 C15          5.2370     0.8410    -0.4150 c3         1 0MU      -0.102400
     20 C16          6.5070     1.0870     0.4180 c3         1 0MU       0.022500
     21 N17          7.3720    -0.0730     0.5670 n8         1 0MU      -0.993200
     22 C18          7.2810     2.2600    -0.2230 c          1 0MU       0.724000
     23 O19          8.2480     1.9710    -0.9560 o          1 0MU      -0.738500
     24 O20          6.8430     3.4050     0.0120 o          1 0MU      -0.738500
     25 H1          -4.1480    -2.1240    -1.0230 h1         1 0MU       0.056200
     26 H3          -4.8200     0.2430    -1.4040 h1         1 0MU       0.039700
     27 H4          -6.1240    -0.4510    -0.4390 h1         1 0MU       0.039700
     28 H9          -1.6090    -1.9380    -1.1900 h2         1 0MU       0.079700
     29 H10         -0.0510    -2.1930     1.4170 h1         1 0MU       0.071700
     30 H11          0.1870    -4.3730     0.5950 h4         1 0MU      -0.009800
     31 H12          0.4820    -0.3280    -0.4660 hn         1 0MU       0.358500
     32 H13          3.3540    -0.7070    -1.6850 hc         1 0MU       0.058700
     33 H14          2.5110     0.5340    -0.7870 hc         1 0MU       0.058700
     34 H15          4.0060     0.1090     1.1890 hc         1 0MU       0.040200
     35 H16          4.8140    -1.1600     0.2880 hc         1 0MU       0.040200
     36 H17          5.5290     0.5350    -1.4270 hc         1 0MU       0.042700
     37 H18          4.6950     1.7850    -0.5190 hc         1 0MU       0.042700
     38 H19          6.1860     1.4020     1.4180 h1         1 0MU       0.045700
     39 H20          6.8280    -0.8930     0.8030 hn         1 0MU       0.375500
     40 H21          7.8060    -0.2610    -0.3280 hn         1 0MU       0.375500
     41 O3          -5.5270     1.4100     0.1690 os         1 0MU      -0.436100
     42 C12         -5.5930     2.4870    -0.6140 c          1 0MU       0.630100
     43 O1          -5.5380     2.4470    -1.8160 o          1 0MU      -0.510000
     44 C1          -5.7870     3.7270     0.2040 c3         1 0MU      -0.150100
     45 H2          -5.0380     3.7880     0.9920 hc         1 0MU       0.066033
     46 H8          -5.7280     4.6100    -0.4250 hc         1 0MU       0.066033
     47 H22         -6.7680     3.7060     0.6830 hc         1 0MU       0.066033
     48 H24         -5.0430    -2.5560     0.4280 h1         1 0MU       0.056200
     49 H25         -4.5380    -0.5250     1.5400 hc         1 0MU       0.098700
@<TRIPOS>BOND
     1     1     2 1   
     2     1    10 1   
     3     2     3 1   
     4     2    25 1   
     5     2    48 1   
     6     3     4 1   
     7     3     5 1   
     8     3    49 1   
     9     4    26 1   
    10     4    27 1   
    11     4    41 1   
    12     5     6 1   
    13     5     9 2   
    14     6     7 1   
    15     6     8 1   
    16     9    10 1   
    17    10    11 1   
    18    10    28 1   
    19    11    12 1   
    20    11    14 1   
    21    11    29 1   
    22    12    13 2   
    23    12    30 1   
    24    14    15 1   
    25    14    31 1   
    26    15    16 2   
    27    15    17 1   
    28    17    18 1   
    29    17    32 1   
    30    17    33 1   
    31    18    19 1   
    32    18    34 1   
    33    18    35 1   
    34    19    20 1   
    35    19    36 1   
    36    19    37 1   
    37    20    21 1   
    38    20    22 1   
    39    20    38 1   
    40    21    39 1   
    41    21    40 1   
    42    22    23 1   
    43    22    24 1   
    44    41    42 1   
    45    42    43 2   
    46    42    44 1   
    47    44    45 1   
    48    44    46 1   
    49    44    47 1   
@<TRIPOS>SUBSTRUCTURE
     1 0MU         1 TEMP              0 ****  ****    0 ROOT
