@<TRIPOS>MOLECULE
0MU
   49    49     1     0     0
SMALL
No Charge or Current Charge


@<TRIPOS>ATOM
      1 S1          -2.9010    -3.0160     0.5230 ss         1 0MU      -0.526000
      2 C2          -4.0530    -1.9650     1.5180 c6         1 0MU       0.073600
      3 C3          -3.8980    -0.4490     1.2890 c6         1 0MU      -0.163000
      4 C5          -4.4920     0.0260    -0.0630 c3         1 0MU       0.183600
      5 C4          -2.4220    -0.0190     1.4560 ce         1 0MU       0.405300
      6 C9          -2.0980     1.1560     2.4220 c          1 0MU       0.642700
      7 O4A         -3.0050     1.7050     3.0430 o          1 0MU      -0.693500
      8 O4B         -0.9310     1.5180     2.5670 o          1 0MU      -0.693500
      9 N5          -1.4460    -0.6380     0.8320 n2         1 0MU      -0.616900
     10 C6          -1.7070    -1.7480    -0.0930 c6         1 0MU       0.281500
     11 C7          -0.3570    -2.4390    -0.4470 c3         1 0MU       0.016700
     12 C8          -0.5610    -3.5230    -1.5290 c          1 0MU       0.594900
     13 O9          -0.3890    -3.3410    -2.7330 o          1 0MU      -0.528100
     14 N10          0.7140    -1.4830    -0.8410 ns         1 0MU      -0.478900
     15 C11          2.0480    -1.8010    -0.9220 c          1 0MU       0.597100
     16 O12          2.4540    -2.9400    -0.7350 o          1 0MU      -0.650100
     17 C13          2.9770    -0.6420    -1.3050 c3         1 0MU      -0.150400
     18 C14          3.8170    -0.1580    -0.0990 c3         1 0MU      -0.070400
     19 C15          4.7710     1.0080    -0.4600 c3         1 0MU      -0.102400
     20 C16          5.5880     1.5710     0.7360 c3         1 0MU       0.022500
     21 N17          6.5140     0.5100     1.2760 n8         1 0MU      -0.993200
     22 C18          6.2520     2.9640     0.3600 c          1 0MU       0.724000
     23 O19          7.1530     2.9810    -0.4720 o          1 0MU      -0.738500
     24 O20          5.8890     3.9640     0.9660 o          1 0MU      -0.738500
     25 H1          -5.0850    -2.2820     1.3100 h1         1 0MU       0.056200
     26 H3          -4.0250    -0.5110    -0.8960 h1         1 0MU       0.039700
     27 H4          -5.5670    -0.2010    -0.0760 h1         1 0MU       0.039700
     28 H9          -2.1280    -1.3360    -1.0230 h2         1 0MU       0.079700
     29 H10         -0.0170    -2.9630     0.4550 h1         1 0MU       0.071700
     30 H11         -0.8720    -4.5200    -1.1460 h4         1 0MU      -0.009800
     31 H12          0.4670    -0.5080    -0.9690 hn         1 0MU       0.358500
     32 H13          3.6620    -0.9890    -2.0880 hc         1 0MU       0.058700
     33 H14          2.3860     0.2030    -1.6790 hc         1 0MU       0.058700
     34 H15          3.1400     0.1640     0.7030 hc         1 0MU       0.040200
     35 H16          4.3960    -1.0040     0.2910 hc         1 0MU       0.040200
     36 H17          5.4570     0.6900    -1.2550 hc         1 0MU       0.042700
     37 H18          4.1710     1.8260    -0.8780 hc         1 0MU       0.042700
     38 H19          4.8660     1.7910     1.5350 h1         1 0MU       0.045700
     39 H20          6.0070    -0.3800     1.3300 hn         1 0MU       0.375500
     40 H21          7.2500     0.3340     0.5800 hn         1 0MU       0.375500
     41 O3          -4.2730     1.4390    -0.1850 os         1 0MU      -0.436100
     42 C12         -4.7360     2.0670    -1.3110 c          1 0MU       0.630100
     43 O1          -5.3220     1.5070    -2.2280 o          1 0MU      -0.510000
     44 C1          -4.4220     3.5560    -1.2910 c3         1 0MU      -0.150100
     45 H2          -3.3440     3.6870    -1.1460 hc         1 0MU       0.066033
     46 H8          -4.7800     4.0750    -2.1860 hc         1 0MU       0.066033
     47 H22         -4.8340     3.9900    -0.3730 hc         1 0MU       0.066033
     48 H24         -3.8510    -2.1860     2.5760 h1         1 0MU       0.056200
     49 H25         -4.5130     0.0450     2.0490 hc         1 0MU       0.098700
@<TRIPOS>BOND
     1     1     2 1   
     2     1    10 1   
     3     2     3 1   
     4     2    25 1   
     5     2    48 1   
     6     3     4 1   
     7     3     5 1   
     8     3    49 1   
     9     4    26 1   
    10     4    27 1   
    11     4    41 1   
    12     5     6 1   
    13     5     9 2   
    14     6     7 1   
    15     6     8 1   
    16     9    10 1   
    17    10    11 1   
    18    10    28 1   
    19    11    12 1   
    20    11    14 1   
    21    11    29 1   
    22    12    13 2   
    23    12    30 1   
    24    14    15 1   
    25    14    31 1   
    26    15    16 2   
    27    15    17 1   
    28    17    18 1   
    29    17    32 1   
    30    17    33 1   
    31    18    19 1   
    32    18    34 1   
    33    18    35 1   
    34    19    20 1   
    35    19    36 1   
    36    19    37 1   
    37    20    21 1   
    38    20    22 1   
    39    20    38 1   
    40    21    39 1   
    41    21    40 1   
    42    22    23 1   
    43    22    24 1   
    44    41    42 1   
    45    42    43 2   
    46    42    44 1   
    47    44    45 1   
    48    44    46 1   
    49    44    47 1   
@<TRIPOS>SUBSTRUCTURE
     1 0MU         1 TEMP              0 ****  ****    0 ROOT
