@<TRIPOS>MOLECULE
0MV
   38    41     1     0     0
SMALL
abcg2


@<TRIPOS>ATOM
      1 O           12.4690   -27.8790   -15.4400 o          1 0MV      -0.536000
      2 C           11.4830   -27.6030   -14.7730 c          1 0MV       0.553000
      3 NAM         10.4740   -28.5010   -14.5880 ns         1 0MV      -0.154000
      4 CAS          9.2310   -28.3010   -13.9560 ca         1 0MV       0.004000
      5 CAG          8.1210   -28.9170   -14.5420 ca         1 0MV      -0.162000
      6 CAC          6.8640   -28.8050   -13.9740 ca         1 0MV      -0.064000
      7 CAD          6.6910   -28.0720   -12.8010 ca         1 0MV      -0.137000
      8 CAH          7.7900   -27.4860   -12.2000 ca         1 0MV      -0.037000
      9 CAT          9.0700   -27.5870   -12.7570 ca         1 0MV      -0.172600
     10 CAP         10.1950   -27.0120   -11.9610 c          1 0MV       0.582600
     11 OAA         10.1750   -27.0290   -10.7280 o          1 0MV      -0.563000
     12 N           11.2270   -26.4780   -12.6440 ns         1 0MV      -0.494900
     13 CA          11.2670   -26.2610   -14.0820 c3         1 0MV       0.047700
     14 CB          12.3480   -25.2400   -14.4400 c3         1 0MV       0.000800
     15 CG          12.0980   -23.9060   -13.8160 cc         1 0MV      -0.156400
     16 CD2         11.0120   -23.0080   -14.1090 ca         1 0MV      -0.092800
     17 CE3          9.9400   -23.0360   -15.0120 ca         1 0MV      -0.066000
     18 CZ3          9.0530   -21.9720   -15.0360 ca         1 0MV      -0.136000
     19 CH2          9.2150   -20.8720   -14.1740 ca         1 0MV      -0.091000
     20 CZ2         10.2670   -20.8120   -13.2730 ca         1 0MV      -0.125000
     21 CE2         11.1580   -21.8850   -13.2490 ca         1 0MV      -0.042200
     22 NE1         12.2750   -22.1020   -12.4800 na         1 0MV      -0.229700
     23 CD1         12.8330   -23.3140   -12.8210 cd         1 0MV      -0.144100
     24 H1          10.5630   -29.3490   -15.1320 hn         1 0MV       0.158000
     25 H2           8.2600   -29.4830   -15.4550 ha         1 0MV       0.119000
     26 H3           6.0180   -29.2830   -14.4500 ha         1 0MV       0.119000
     27 H4           5.7090   -27.9710   -12.3570 ha         1 0MV       0.123000
     28 H5           7.6830   -26.9410   -11.2720 ha         1 0MV       0.138000
     29 H6          11.9910   -26.1140   -12.0900 hn         1 0MV       0.327500
     30 H7          10.2940   -25.8790   -14.4040 h1         1 0MV       0.077700
     31 H8          13.3200   -25.6280   -14.1270 hc         1 0MV       0.068700
     32 H9          12.3740   -25.1620   -15.5280 hc         1 0MV       0.068700
     33 H10          9.8070   -23.8750   -15.6840 ha         1 0MV       0.111000
     34 H11          8.2210   -21.9830   -15.7280 ha         1 0MV       0.112000
     35 H12          8.5050   -20.0560   -14.2160 ha         1 0MV       0.112000
     36 H13         10.3940   -19.9650   -12.6110 ha         1 0MV       0.114000
     37 H14         12.6340   -21.4760   -11.7790 hn         1 0MV       0.353000
     38 H15         13.7230   -23.6680   -12.3250 h4         1 0MV       0.214000
@<TRIPOS>BOND
     1     1     2 2   
     2     2     3 1   
     3     2    13 1   
     4     3     4 1   
     5     3    24 1   
     6     4     5 ar  
     7     4     9 ar  
     8     5     6 ar  
     9     5    25 1   
    10     6     7 ar  
    11     6    26 1   
    12     7     8 ar  
    13     7    27 1   
    14     8     9 ar  
    15     8    28 1   
    16     9    10 1   
    17    10    11 2   
    18    10    12 1   
    19    12    13 1   
    20    12    29 1   
    21    13    14 1   
    22    13    30 1   
    23    14    15 1   
    24    14    31 1   
    25    14    32 1   
    26    15    16 1   
    27    15    23 2   
    28    16    17 ar  
    29    16    21 ar  
    30    17    18 ar  
    31    17    33 1   
    32    18    19 ar  
    33    18    34 1   
    34    19    20 ar  
    35    19    35 1   
    36    20    21 ar  
    37    20    36 1   
    38    21    22 1   
    39    22    23 1   
    40    22    37 1   
    41    23    38 1   
@<TRIPOS>SUBSTRUCTURE
     1 0MV         1 TEMP              0 ****  ****    0 ROOT
