@<TRIPOS>MOLECULE
0MV
   38    41     1     0     0
SMALL
No Charge or Current Charge


@<TRIPOS>ATOM
      1 O           12.4510   -27.8910   -15.4400 o          1 0MV      -0.536000
      2 C           11.4500   -27.5890   -14.7990 c          1 0MV       0.553000
      3 NAM         10.3930   -28.4630   -14.6720 ns         1 0MV      -0.154000
      4 CAS          9.1640   -28.3410   -13.9770 ca         1 0MV       0.004000
      5 CAG          8.0720   -29.0230   -14.5460 ca         1 0MV      -0.162000
      6 CAC          6.8100   -29.0090   -13.9370 ca         1 0MV      -0.064000
      7 CAD          6.6320   -28.3230   -12.7310 ca         1 0MV      -0.137000
      8 CAH          7.7140   -27.6560   -12.1370 ca         1 0MV      -0.037000
      9 CAT          8.9930   -27.6410   -12.7450 ca         1 0MV      -0.172600
     10 CAP         10.1000   -26.9420   -11.9790 c          1 0MV       0.582600
     11 OAA         10.0690   -26.8410   -10.7620 o          1 0MV      -0.563000
     12 N           11.1860   -26.4420   -12.6470 ns         1 0MV      -0.494900
     13 CA          11.2680   -26.2290   -14.0970 c3         1 0MV       0.047700
     14 CB          12.3560   -25.1890   -14.4660 c3         1 0MV       0.000800
     15 CG          12.1380   -23.8490   -13.8090 cc         1 0MV      -0.156400
     16 CD2         11.0820   -22.9160   -14.0880 ca         1 0MV      -0.092800
     17 CE3         10.0370   -22.9780   -15.0220 ca         1 0MV      -0.066000
     18 CZ3          9.1320   -21.8960   -15.0730 ca         1 0MV      -0.136000
     19 CH2          9.2900   -20.7900   -14.2050 ca         1 0MV      -0.091000
     20 CZ2         10.3570   -20.7580   -13.2810 ca         1 0MV      -0.125000
     21 CE2         11.2390   -21.8470   -13.2520 ca         1 0MV      -0.042200
     22 NE1         12.3440   -22.0180   -12.4390 na         1 0MV      -0.229700
     23 CD1         12.9000   -23.2710   -12.7970 cd         1 0MV      -0.144100
     24 H1          10.4990   -29.3270   -15.1880 hn         1 0MV       0.158000
     25 H2           8.2000   -29.5690   -15.4790 ha         1 0MV       0.119000
     26 H3           5.9740   -29.5350   -14.3950 ha         1 0MV       0.119000
     27 H4           5.6570   -28.3140   -12.2480 ha         1 0MV       0.123000
     28 H5           7.5520   -27.1410   -11.1920 ha         1 0MV       0.138000
     29 H6          11.8880   -26.0030   -12.0630 hn         1 0MV       0.327500
     30 H7          10.3010   -25.8330   -14.4330 h1         1 0MV       0.077700
     31 H8          13.3420   -25.5810   -14.1870 hc         1 0MV       0.068700
     32 H9          12.3730   -25.0580   -15.5550 hc         1 0MV       0.068700
     33 H10          9.9250   -23.8280   -15.6890 ha         1 0MV       0.111000
     34 H11          8.3100   -21.9130   -15.7850 ha         1 0MV       0.112000
     35 H12          8.5890   -19.9600   -14.2510 ha         1 0MV       0.112000
     36 H13         10.4890   -19.9110   -12.6120 ha         1 0MV       0.114000
     37 H14         12.6880   -21.3760   -11.7310 hn         1 0MV       0.353000
     38 H15         13.7890   -23.6600   -12.3050 h4         1 0MV       0.214000
@<TRIPOS>BOND
     1     1     2 2   
     2     2     3 1   
     3     2    13 1   
     4     3     4 1   
     5     3    24 1   
     6     4     5 ar  
     7     4     9 ar  
     8     5     6 ar  
     9     5    25 1   
    10     6     7 ar  
    11     6    26 1   
    12     7     8 ar  
    13     7    27 1   
    14     8     9 ar  
    15     8    28 1   
    16     9    10 1   
    17    10    11 2   
    18    10    12 1   
    19    12    13 1   
    20    12    29 1   
    21    13    14 1   
    22    13    30 1   
    23    14    15 1   
    24    14    31 1   
    25    14    32 1   
    26    15    16 1   
    27    15    23 2   
    28    16    17 ar  
    29    16    21 ar  
    30    17    18 ar  
    31    17    33 1   
    32    18    19 ar  
    33    18    34 1   
    34    19    20 ar  
    35    19    35 1   
    36    20    21 ar  
    37    20    36 1   
    38    21    22 1   
    39    22    23 1   
    40    22    37 1   
    41    23    38 1   
@<TRIPOS>SUBSTRUCTURE
     1 0MV         1 TEMP              0 ****  ****    0 ROOT
