@<TRIPOS>MOLECULE
0MW
   34    33     1     0     0
SMALL
abcg2


@<TRIPOS>ATOM
      1 O1           2.0650    -2.7230     1.0850 o          1 0MW      -0.978000
      2 P1           2.1980    -1.6690    -0.0360 p5         1 0MW       1.376000
      3 O2           3.5630    -1.7320    -0.7330 o          1 0MW      -0.978000
      4 O3           1.0130    -1.7500    -1.0300 o          1 0MW      -0.978000
      5 C9           2.0680    -0.0260     0.8340 c3         1 0MW      -0.720700
      6 P2           2.5940     1.4980    -0.0990 p5         1 0MW       1.376000
      7 O5           1.9780     1.4590    -1.5050 o          1 0MW      -0.978000
      8 O4           2.0710     2.6850     0.7440 o          1 0MW      -0.978000
      9 O6           4.1340     1.4680    -0.1170 o          1 0MW      -0.978000
     10 C8           0.6930     0.1210     1.4810 c3         1 0MW       0.261800
     11 N1          -0.3710     0.2410     0.5010 n7         1 0MW      -0.860400
     12 C7          -1.6770     0.0110     1.0640 c3         1 0MW       0.207800
     13 C6          -2.7760     0.0930     0.0130 c3         1 0MW      -0.085400
     14 C5          -4.1730    -0.0430     0.6030 c3         1 0MW      -0.071400
     15 C4          -5.2800     0.0130    -0.4420 c3         1 0MW      -0.077400
     16 C3          -6.6790    -0.0750     0.1580 c3         1 0MW      -0.078400
     17 C2          -7.7790    -0.0250    -0.8940 c3         1 0MW      -0.083100
     18 H3           2.7800    -0.0910     1.6700 hc         1 0MW       0.011700
     19 H6           0.5230    -0.7460     2.1460 h1         1 0MW      -0.047300
     20 H7           0.6830     1.0090     2.1240 h1         1 0MW      -0.047300
     21 H8          -0.1580    -0.4530    -0.2190 hn         1 0MW       0.509000
     22 H10         -1.7550    -0.9620     1.5870 h1         1 0MW      -0.042800
     23 H11         -1.8690     0.7690     1.8340 h1         1 0MW      -0.042800
     24 H12         -2.6940     1.0490    -0.5150 hc         1 0MW       0.050700
     25 H13         -2.6170    -0.6880    -0.7390 hc         1 0MW       0.050700
     26 H14         -4.2470    -0.9850     1.1580 hc         1 0MW       0.013700
     27 H15         -4.3310     0.7530     1.3390 hc         1 0MW       0.013700
     28 H16         -5.1930     0.9430    -1.0160 hc         1 0MW       0.034200
     29 H17         -5.1430    -0.8000    -1.1630 hc         1 0MW       0.034200
     30 H18         -6.7660    -0.9990     0.7380 hc         1 0MW       0.024200
     31 H19         -6.8160     0.7430     0.8720 hc         1 0MW       0.024200
     32 H20         -7.7310     0.9010    -1.4700 hc         1 0MW       0.012367
     33 H21         -7.6880    -0.8550    -1.5970 hc         1 0MW       0.012367
     34 H22         -8.7700    -0.0810    -0.4420 hc         1 0MW       0.012367
@<TRIPOS>BOND
     1     1     2 1   
     2     2     3 1   
     3     2     4 1   
     4     2     5 1   
     5     5     6 1   
     6     5    10 1   
     7     5    18 1   
     8     6     7 1   
     9     6     8 1   
    10     6     9 1   
    11    10    11 1   
    12    10    19 1   
    13    10    20 1   
    14    11    12 1   
    15    11    21 1   
    16    12    13 1   
    17    12    22 1   
    18    12    23 1   
    19    13    14 1   
    20    13    24 1   
    21    13    25 1   
    22    14    15 1   
    23    14    26 1   
    24    14    27 1   
    25    15    16 1   
    26    15    28 1   
    27    15    29 1   
    28    16    17 1   
    29    16    30 1   
    30    16    31 1   
    31    17    32 1   
    32    17    33 1   
    33    17    34 1   
@<TRIPOS>SUBSTRUCTURE
     1 0MW         1 TEMP              0 ****  ****    0 ROOT
