@<TRIPOS>MOLECULE
0MW
   34    33     1     0     0
SMALL
No Charge or Current Charge


@<TRIPOS>ATOM
      1 O1           1.8690    -2.6570     0.8900 o          1 0MW      -0.978000
      2 P1           1.9560    -1.5460    -0.1030 p5         1 0MW       1.376000
      3 O2           3.1400    -1.7880    -0.9750 o          1 0MW      -0.978000
      4 O3           0.6910    -1.5610    -0.8960 o          1 0MW      -0.978000
      5 C9           2.0320    -0.0420     0.8550 c3         1 0MW      -0.720700
      6 P2           2.7020     1.2580    -0.1760 p5         1 0MW       1.376000
      7 O5           2.0940     1.3310    -1.5370 o          1 0MW      -0.978000
      8 O4           2.4810     2.5550     0.5320 o          1 0MW      -0.978000
      9 O6           4.1830     1.0930    -0.2740 o          1 0MW      -0.978000
     10 C8           0.7510     0.2730     1.6020 c3         1 0MW       0.261800
     11 N1          -0.3490     0.4160     0.6770 n7         1 0MW      -0.860400
     12 C7          -1.6760     0.1450     1.2260 c3         1 0MW       0.207800
     13 C6          -2.7520     0.2400     0.1240 c3         1 0MW      -0.085400
     14 C5          -4.1770    -0.0470     0.6490 c3         1 0MW      -0.071400
     15 C4          -5.2600     0.0490    -0.4480 c3         1 0MW      -0.077400
     16 C3          -6.6830    -0.2380     0.0790 c3         1 0MW      -0.078400
     17 C2          -7.7630    -0.1420    -1.0140 c3         1 0MW      -0.083100
     18 H3           2.8030    -0.2180     1.6100 hc         1 0MW       0.011700
     19 H6           0.5480    -0.5630     2.2840 h1         1 0MW      -0.047300
     20 H7           0.8600     1.1750     2.2180 h1         1 0MW      -0.047300
     21 H8          -0.1430    -0.3310    -0.0200 hn         1 0MW       0.509000
     22 H10         -1.6980    -0.8630     1.6590 h1         1 0MW      -0.042800
     23 H11         -1.9060     0.8650     2.0220 h1         1 0MW      -0.042800
     24 H12         -2.7280     1.2440    -0.3180 hc         1 0MW       0.050700
     25 H13         -2.5130    -0.4720    -0.6750 hc         1 0MW       0.050700
     26 H14         -4.2000    -1.0500     1.0920 hc         1 0MW       0.013700
     27 H15         -4.4130     0.6630     1.4510 hc         1 0MW       0.013700
     28 H16         -5.2360     1.0520    -0.8910 hc         1 0MW       0.034200
     29 H17         -5.0230    -0.6620    -1.2500 hc         1 0MW       0.034200
     30 H18         -6.7110    -1.2410     0.5210 hc         1 0MW       0.024200
     31 H19         -6.9230     0.4720     0.8800 hc         1 0MW       0.024200
     32 H20         -7.7840     0.8630    -1.4530 hc         1 0MW       0.012367
     33 H21         -7.5700    -0.8660    -1.8150 hc         1 0MW       0.012367
     34 H22         -8.7530    -0.3530    -0.5920 hc         1 0MW       0.012367
@<TRIPOS>BOND
     1     1     2 1   
     2     2     3 1   
     3     2     4 1   
     4     2     5 1   
     5     5     6 1   
     6     5    10 1   
     7     5    18 1   
     8     6     7 1   
     9     6     8 1   
    10     6     9 1   
    11    10    11 1   
    12    10    19 1   
    13    10    20 1   
    14    11    12 1   
    15    11    21 1   
    16    12    13 1   
    17    12    22 1   
    18    12    23 1   
    19    13    14 1   
    20    13    24 1   
    21    13    25 1   
    22    14    15 1   
    23    14    26 1   
    24    14    27 1   
    25    15    16 1   
    26    15    28 1   
    27    15    29 1   
    28    16    17 1   
    29    16    30 1   
    30    16    31 1   
    31    17    32 1   
    32    17    33 1   
    33    17    34 1   
@<TRIPOS>SUBSTRUCTURE
     1 0MW         1 TEMP              0 ****  ****    0 ROOT
