@<TRIPOS>MOLECULE
0MX
   51    55     1     0     0
SMALL
abcg2


@<TRIPOS>ATOM
      1 C1           1.1500    -1.1790     0.3350 cp         1 0MX      -0.086000
      2 N1           4.5560    -3.0070     1.6900 na         1 0MX      -0.060400
      3 O1          -3.9330     2.7880     0.4210 o          1 0MX      -0.525000
      4 S1          -4.5910     2.0430    -0.6340 sy         1 0MX       1.143600
      5 CL1         -8.1070    -2.0620    -0.7480 cl         1 0MX      -0.189000
      6 C2           0.9930    -2.4230     0.9970 ca         1 0MX      -0.055000
      7 N2           5.5240    -2.1530     1.3210 nc         1 0MX      -0.511100
      8 O2          -5.6280     2.6590    -1.4410 o          1 0MX      -0.525000
      9 C3           2.0530    -3.1360     1.5020 ca         1 0MX      -0.136000
     10 O3           7.7500    -0.6400     0.4720 o          1 0MX      -0.534100
     11 C4           2.4160    -0.6450     0.1830 ca         1 0MX      -0.014000
     12 N4          -3.4130     1.5570    -1.7020 nu         1 0MX      -0.866100
     13 O4           6.3490     2.2560    -1.0110 os         1 0MX      -0.246000
     14 C5           3.5100    -1.3530     0.6860 ca         1 0MX      -0.261900
     15 C6           3.3270    -2.5830     1.3360 ca         1 0MX      -0.012200
     16 C7           4.9250    -1.1600     0.7190 cd         1 0MX       0.430500
     17 C8          -0.0360    -0.4720    -0.1860 cp         1 0MX      -0.017000
     18 C9          -1.0830    -1.1760    -0.7840 ca         1 0MX      -0.098000
     19 C10         -2.1990    -0.5160    -1.2700 ca         1 0MX      -0.101500
     20 C11         -2.2810     0.8690    -1.1870 ca         1 0MX       0.224000
     21 C12         -1.2450     1.5860    -0.6030 ca         1 0MX      -0.101500
     22 C13         -0.1400     0.9170    -0.1030 ca         1 0MX      -0.098000
     23 C14         -5.2320     0.5500     0.0760 ca         1 0MX      -0.300500
     24 C15         -4.6100     0.0050     1.1900 ca         1 0MX      -0.005000
     25 C16         -5.0840    -1.1960     1.6970 ca         1 0MX      -0.123000
     26 C17         -6.1590    -1.8380     1.1030 ca         1 0MX      -0.052000
     27 C18         -6.7610    -1.2680    -0.0100 ca         1 0MX       0.095000
     28 C19         -6.3090    -0.0730    -0.5410 ca         1 0MX      -0.017000
     29 C20          6.9050     0.1400     0.0750 c          1 0MX       0.546600
     30 C21          7.2970     1.3960    -0.5750 cc         1 0MX       0.045500
     31 C22          6.9790     3.3050    -1.5640 cc         1 0MX       0.149900
     32 C23          8.3240     3.1390    -1.4930 cd         1 0MX      -0.199000
     33 C24          8.5330     1.8910    -0.8470 cd         1 0MX      -0.095000
     34 HN1          4.8050    -3.8550     2.1710 hn         1 0MX       0.384000
     35 H2          -0.0050    -2.8210     1.1290 ha         1 0MX       0.115000
     36 H3           1.9020    -4.0780     2.0120 ha         1 0MX       0.125000
     37 HN3          4.9520     0.6560    -0.1860 hn         1 0MX       0.338500
     38 H4           2.5570     0.2940    -0.3400 ha         1 0MX       0.117000
     39 HN4         -3.8180     1.1370    -2.5330 hn         1 0MX       0.488000
     40 H9          -1.0280    -2.2530    -0.8840 ha         1 0MX       0.121000
     41 H10         -3.0040    -1.0810    -1.7240 ha         1 0MX       0.129500
     42 H12         -1.2980     2.6640    -0.5430 ha         1 0MX       0.129500
     43 H13          0.6490     1.4890     0.3690 ha         1 0MX       0.121000
     44 H15         -3.7750     0.5020     1.6650 ha         1 0MX       0.144000
     45 H16         -4.6120    -1.6350     2.5650 ha         1 0MX       0.125000
     46 H17         -6.5260    -2.7730     1.5040 ha         1 0MX       0.133000
     47 H19         -6.7920     0.3580    -1.4080 ha         1 0MX       0.151000
     48 H22          6.3560     4.0880    -1.9630 h4         1 0MX       0.057100
     49 H23          9.0730     3.8240    -1.8560 ha         1 0MX       0.149000
     50 H24          9.4750     1.4230    -0.6160 ha         1 0MX       0.161000
     51 N3           5.5640    -0.0570     0.1810 ns         1 0MX      -0.394400
@<TRIPOS>BOND
     1     1     6 ar  
     2     1    11 ar  
     3     1    17 1   
     4     2     7 1   
     5     2    15 1   
     6     2    34 1   
     7     3     4 2   
     8     4     8 2   
     9     4    12 1   
    10     4    23 1   
    11     5    27 1   
    12     6     9 ar  
    13     6    35 1   
    14     7    16 2   
    15     9    15 ar  
    16     9    36 1   
    17    10    29 2   
    18    11    14 ar  
    19    11    38 1   
    20    12    20 1   
    21    12    39 1   
    22    13    30 1   
    23    13    31 1   
    24    14    15 ar  
    25    14    16 1   
    26    16    51 1   
    27    17    18 ar  
    28    17    22 ar  
    29    18    19 ar  
    30    18    40 1   
    31    19    20 ar  
    32    19    41 1   
    33    20    21 ar  
    34    21    22 ar  
    35    21    42 1   
    36    22    43 1   
    37    23    24 ar  
    38    23    28 ar  
    39    24    25 ar  
    40    24    44 1   
    41    25    26 ar  
    42    25    45 1   
    43    26    27 ar  
    44    26    46 1   
    45    27    28 ar  
    46    28    47 1   
    47    29    30 1   
    48    29    51 1   
    49    30    33 2   
    50    31    32 2   
    51    31    48 1   
    52    32    33 1   
    53    32    49 1   
    54    33    50 1   
    55    37    51 1   
@<TRIPOS>SUBSTRUCTURE
     1 0MX         1 TEMP              0 ****  ****    0 ROOT
