@<TRIPOS>MOLECULE
0MX
   51    55     1     0     0
SMALL
No Charge or Current Charge


@<TRIPOS>ATOM
      1 C1           1.2400    -2.0880    -0.5430 cp         1 0MX      -0.086000
      2 N1           4.8540    -3.7400     0.7240 na         1 0MX      -0.060400
      3 O1          -3.6390     2.9150    -1.7730 o          1 0MX      -0.525000
      4 S1          -4.4970     1.7330    -1.6570 sy         1 0MX       1.143600
      5 Cl1         -6.8250    -1.5160     2.1400 cl         1 0MX      -0.189000
      6 C2           1.2770    -3.5030    -0.3420 ca         1 0MX      -0.055000
      7 N2           5.6900    -2.6100     0.8110 nc         1 0MX      -0.511100
      8 O2          -5.7640     1.6090    -2.3810 o          1 0MX      -0.525000
      9 C3           2.4540    -4.1550     0.0870 ca         1 0MX      -0.136000
     10 O3           7.4710    -0.2840     1.0080 o          1 0MX      -0.534100
     11 C4           2.4270    -1.3410    -0.2990 ca         1 0MX      -0.014000
     12 N4          -3.5930     0.4740    -2.3090 nu         1 0MX      -0.866100
     13 O4           5.3260     2.4970     0.0190 os         1 0MX      -0.246000
     14 C5           3.5760    -2.0260     0.1260 ca         1 0MX      -0.261900
     15 C6           3.5890    -3.3690     0.3100 ca         1 0MX      -0.012200
     16 C7           4.9100    -1.5830     0.4490 cd         1 0MX       0.430500
     17 C8          -0.0150    -1.4100    -0.9980 cp         1 0MX      -0.017000
     18 C9          -0.9020    -2.0390    -1.9060 ca         1 0MX      -0.098000
     19 C10         -2.0790    -1.4000    -2.3330 ca         1 0MX      -0.101500
     20 C11         -2.4100    -0.1170    -1.8640 ca         1 0MX       0.224000
     21 C12         -1.5340     0.5240    -0.9670 ca         1 0MX      -0.101500
     22 C13         -0.3560    -0.1130    -0.5400 ca         1 0MX      -0.098000
     23 C14         -4.7470     1.2880     0.0660 ca         1 0MX      -0.300500
     24 C15         -4.0990     2.0050     1.0940 ca         1 0MX      -0.005000
     25 C16         -4.2940     1.6360     2.4370 ca         1 0MX      -0.123000
     26 C17         -5.1320     0.5530     2.7590 ca         1 0MX      -0.052000
     27 C18         -5.7780    -0.1610     1.7360 ca         1 0MX       0.095000
     28 C19         -5.5890     0.2030     0.3920 ca         1 0MX      -0.017000
     29 C20          6.4770     0.3290     0.6410 c          1 0MX       0.546600
     30 C21          6.4460     1.8010     0.4340 cc         1 0MX       0.045500
     31 C22          5.6900     3.8240    -0.0550 cc         1 0MX       0.149900
     32 C23          7.0050     3.9570     0.3040 cd         1 0MX      -0.199000
     33 C24          7.4900     2.6690     0.6160 cd         1 0MX      -0.095000
     34 HN1          5.1760    -4.6820     0.9440 hn         1 0MX       0.384000
     35 H2           0.3820    -4.0980    -0.5070 ha         1 0MX       0.115000
     36 H3           2.4740    -5.2320     0.2400 ha         1 0MX       0.125000
     37 HN3          4.5500     0.3930     0.0790 hn         1 0MX       0.338500
     38 H4           2.4490    -0.2640    -0.4520 ha         1 0MX       0.117000
     39 HN4         -4.2260    -0.0800    -2.8690 hn         1 0MX       0.488000
     40 H9          -0.6700    -3.0270    -2.2960 ha         1 0MX       0.121000
     41 H10         -2.7380    -1.9080    -3.0320 ha         1 0MX       0.129500
     42 H12         -1.7530     1.5190    -0.5940 ha         1 0MX       0.129500
     43 H13          0.2920     0.4010     0.1650 ha         1 0MX       0.121000
     44 H15         -3.4460     2.8460     0.8630 ha         1 0MX       0.144000
     45 H16         -3.7940     2.1890     3.2290 ha         1 0MX       0.125000
     46 H17         -5.2810     0.2680     3.7980 ha         1 0MX       0.133000
     47 H19         -6.0930    -0.3620    -0.3890 ha         1 0MX       0.151000
     48 H22          4.9430     4.5420    -0.3660 h4         1 0MX       0.057100
     49 H23          7.5640     4.8860     0.3390 ha         1 0MX       0.149000
     50 H24          8.4940     2.4090     0.9390 ha         1 0MX       0.161000
     51 N3           5.2610    -0.2600     0.3710 ns         1 0MX      -0.394400
@<TRIPOS>BOND
     1     1     6 ar  
     2     1    11 ar  
     3     1    17 1   
     4     2     7 1   
     5     2    15 1   
     6     2    34 1   
     7     3     4 2   
     8     4     8 2   
     9     4    12 1   
    10     4    23 1   
    11     5    27 1   
    12     6     9 ar  
    13     6    35 1   
    14     7    16 2   
    15     9    15 ar  
    16     9    36 1   
    17    10    29 2   
    18    11    14 ar  
    19    11    38 1   
    20    12    20 1   
    21    12    39 1   
    22    13    30 1   
    23    13    31 1   
    24    14    15 ar  
    25    14    16 1   
    26    16    51 1   
    27    17    18 ar  
    28    17    22 ar  
    29    18    19 ar  
    30    18    40 1   
    31    19    20 ar  
    32    19    41 1   
    33    20    21 ar  
    34    21    22 ar  
    35    21    42 1   
    36    22    43 1   
    37    23    24 ar  
    38    23    28 ar  
    39    24    25 ar  
    40    24    44 1   
    41    25    26 ar  
    42    25    45 1   
    43    26    27 ar  
    44    26    46 1   
    45    27    28 ar  
    46    28    47 1   
    47    29    30 1   
    48    29    51 1   
    49    30    33 2   
    50    31    32 2   
    51    31    48 1   
    52    32    33 1   
    53    32    49 1   
    54    33    50 1   
    55    37    51 1   
@<TRIPOS>SUBSTRUCTURE
     1 0MX         1 TEMP              0 ****  ****    0 ROOT
