@<TRIPOS>MOLECULE
0MY
   42    45     1     0     0
SMALL
No Charge or Current Charge


@<TRIPOS>ATOM
      1 O2           5.0100     2.4560     0.7010 o          1 0MY      -0.525000
      2 S1           3.8890     1.9370    -0.0850 sy         1 0MY       1.138600
      3 O1           3.5110     2.5040    -1.3820 o          1 0MY      -0.525000
      4 C14          3.9980     0.1450    -0.1790 ca         1 0MY      -0.299500
      5 C17          3.6140    -0.5330    -1.3560 ca         1 0MY       0.000000
      6 C18          3.6870    -1.9360    -1.4140 ca         1 0MY       0.096000
      7 Cl1          3.2030    -2.7790    -2.8810 cl         1 0MY      -0.189000
      8 C19          4.1430    -2.6660    -0.3040 ca         1 0MY      -0.053000
      9 C16          4.5290    -1.9930     0.8690 ca         1 0MY      -0.123000
     10 C15          4.4570    -0.5900     0.9340 ca         1 0MY      -0.021000
     11 N4           2.5760     2.2440     0.9210 nu         1 0MY      -0.858100
     12 C11          1.2720     1.7490     0.8800 ca         1 0MY       0.217000
     13 C10          0.5080     1.7640     2.0590 ca         1 0MY      -0.103500
     14 C9          -0.8080     1.2680     2.0680 ca         1 0MY      -0.098000
     15 C12          0.6920     1.2390    -0.2980 ca         1 0MY      -0.103500
     16 C13         -0.6240     0.7440    -0.2900 ca         1 0MY      -0.098000
     17 C8          -1.4020     0.7450     0.8930 cp         1 0MY      -0.012000
     18 C1          -2.8030     0.2160     0.9020 cp         1 0MY      -0.096000
     19 C4          -3.6530     0.3840    -0.2300 ca         1 0MY      -0.005000
     20 C6          -4.9550    -0.1310    -0.1670 ca         1 0MY      -0.262900
     21 C5          -6.0500    -0.1420    -1.0880 cc         1 0MY       0.554800
     22 N3          -6.0340     0.4120    -2.3080 nv         1 0MY      -0.961200
     23 N2          -7.1370    -0.7480    -0.6300 nd         1 0MY      -0.580100
     24 C7          -5.4260    -0.7810     0.9280 ca         1 0MY      -0.004200
     25 N1          -6.7300    -1.1530     0.6550 na         1 0MY      -0.065400
     26 C3          -4.6400    -0.9760     2.0670 ca         1 0MY      -0.146000
     27 C2          -3.3210    -0.4710     2.0450 ca         1 0MY      -0.050000
     28 H17          3.2590     0.0140    -2.2270 ha         1 0MY       0.155000
     29 H19          4.1980    -3.7510    -0.3540 ha         1 0MY       0.133000
     30 H16          4.8810    -2.5590     1.7280 ha         1 0MY       0.124000
     31 H15          4.7540    -0.0810     1.8500 ha         1 0MY       0.140000
     32 HN4          2.9600     2.4970     1.8220 hn         1 0MY       0.485000
     33 H10          0.9330     2.1610     2.9770 ha         1 0MY       0.129000
     34 H9          -1.3760     1.3040     2.9940 ha         1 0MY       0.122000
     35 H12          1.2480     1.2260    -1.2290 ha         1 0MY       0.129000
     36 H13         -1.0380     0.3430    -1.2120 ha         1 0MY       0.122000
     37 H4          -3.3090     0.9080    -1.1190 ha         1 0MY       0.119000
     38 HN3         -5.3150     1.0990    -2.5000 hn         1 0MY       0.448500
     39 HN3A        -6.9290     0.5430    -2.7630 hn         1 0MY       0.448500
     40 HN1         -7.3530    -1.6600     1.2830 hn         1 0MY       0.379000
     41 H3          -5.0270    -1.5010     2.9380 ha         1 0MY       0.123000
     42 H2          -2.6900    -0.6250     2.9160 ha         1 0MY       0.115000
@<TRIPOS>BOND
     1     1     2 2   
     2     2     3 2   
     3     2     4 1   
     4     2    11 1   
     5     4     5 ar  
     6     4    10 ar  
     7     5     6 ar  
     8     5    28 1   
     9     6     7 1   
    10     6     8 ar  
    11     8     9 ar  
    12     8    29 1   
    13     9    10 ar  
    14     9    30 1   
    15    10    31 1   
    16    11    12 1   
    17    11    32 1   
    18    12    13 ar  
    19    12    15 ar  
    20    13    14 ar  
    21    13    33 1   
    22    14    17 ar  
    23    14    34 1   
    24    15    16 ar  
    25    15    35 1   
    26    16    17 ar  
    27    16    36 1   
    28    17    18 1   
    29    18    19 ar  
    30    18    27 ar  
    31    19    20 ar  
    32    19    37 1   
    33    20    21 1   
    34    20    24 ar  
    35    21    22 1   
    36    21    23 2   
    37    22    38 1   
    38    22    39 1   
    39    23    25 1   
    40    24    25 1   
    41    24    26 ar  
    42    25    40 1   
    43    26    27 ar  
    44    26    41 1   
    45    27    42 1   
@<TRIPOS>SUBSTRUCTURE
     1 0MY         1 TEMP              0 ****  ****    0 ROOT
