@<TRIPOS>MOLECULE
0MY
   42    45     1     0     0
SMALL
abcg2


@<TRIPOS>ATOM
      1 O2           5.0010     2.3530    -0.3510 o          1 0MY      -0.525000
      2 S1           3.7670     1.6380    -0.6170 sy         1 0MY       1.138600
      3 O1           3.2680     1.5090    -1.9730 o          1 0MY      -0.525000
      4 C14          3.8760     0.0140     0.0850 ca         1 0MY      -0.299500
      5 C17          2.9970    -0.9630    -0.3620 ca         1 0MY       0.000000
      6 C18          3.0290    -2.2000     0.2590 ca         1 0MY       0.096000
      7 CL1          1.9330    -3.4300    -0.2640 cl         1 0MY      -0.189000
      8 C19          3.9170    -2.4670     1.2910 ca         1 0MY      -0.053000
      9 C16          4.7870    -1.4730     1.7120 ca         1 0MY      -0.123000
     10 C15          4.7720    -0.2210     1.1180 ca         1 0MY      -0.021000
     11 N4           2.5910     2.4160     0.2680 nu         1 0MY      -0.858100
     12 C11          1.2930     1.8370     0.2940 ca         1 0MY       0.217000
     13 C10          0.8750     1.0890     1.3880 ca         1 0MY      -0.103500
     14 C9          -0.3890     0.5250     1.4030 ca         1 0MY      -0.098000
     15 C12          0.4380     2.0100    -0.7870 ca         1 0MY      -0.103500
     16 C13         -0.8160     1.4220    -0.7750 ca         1 0MY      -0.098000
     17 C8          -1.2550     0.6710     0.3180 cp         1 0MY      -0.012000
     18 C1          -2.5960     0.0560     0.3290 cp         1 0MY      -0.096000
     19 C4          -3.6820     0.7140    -0.2240 ca         1 0MY      -0.005000
     20 C6          -4.9350     0.1010    -0.1890 ca         1 0MY      -0.262900
     21 C5          -6.2510     0.4520    -0.6270 cc         1 0MY       0.554800
     22 N3          -6.6010     1.5870    -1.3230 nv         1 0MY      -0.961200
     23 N2          -7.1010    -0.5000    -0.3410 nd         1 0MY      -0.580100
     24 C7          -5.0940    -1.1680     0.3940 ca         1 0MY      -0.004200
     25 N1          -6.3960    -1.4820     0.2670 na         1 0MY      -0.065400
     26 C3          -4.0070    -1.8490     0.9540 ca         1 0MY      -0.146000
     27 C2          -2.7840    -1.2220     0.9110 ca         1 0MY      -0.050000
     28 H17          2.3040    -0.7740    -1.1690 ha         1 0MY       0.155000
     29 H19          3.9310    -3.4410     1.7620 ha         1 0MY       0.133000
     30 H16          5.4840    -1.6780     2.5140 ha         1 0MY       0.124000
     31 H15          5.4510     0.5490     1.4570 ha         1 0MY       0.140000
     32 HN4          2.9440     2.6890     1.1800 hn         1 0MY       0.485000
     33 H10          1.5380     0.9510     2.2340 ha         1 0MY       0.129000
     34 H9          -0.7020    -0.0310     2.2770 ha         1 0MY       0.122000
     35 H12          0.7500     2.6010    -1.6380 ha         1 0MY       0.129000
     36 H13         -1.4580     1.5420    -1.6380 ha         1 0MY       0.122000
     37 H4          -3.5640     1.6990    -0.6590 ha         1 0MY       0.119000
     38 HN3         -6.1040     2.4160    -1.0340 hn         1 0MY       0.448500
     39 HN3A        -7.5950     1.7630    -1.3380 hn         1 0MY       0.448500
     40 HN1         -6.8710    -2.3070     0.5880 hn         1 0MY       0.379000
     41 H3          -4.1170    -2.8300     1.3980 ha         1 0MY       0.123000
     42 H2          -1.9270    -1.7400     1.3230 ha         1 0MY       0.115000
@<TRIPOS>BOND
     1     1     2 2   
     2     2     3 2   
     3     2     4 1   
     4     2    11 1   
     5     4     5 ar  
     6     4    10 ar  
     7     5     6 ar  
     8     5    28 1   
     9     6     7 1   
    10     6     8 ar  
    11     8     9 ar  
    12     8    29 1   
    13     9    10 ar  
    14     9    30 1   
    15    10    31 1   
    16    11    12 1   
    17    11    32 1   
    18    12    13 ar  
    19    12    15 ar  
    20    13    14 ar  
    21    13    33 1   
    22    14    17 ar  
    23    14    34 1   
    24    15    16 ar  
    25    15    35 1   
    26    16    17 ar  
    27    16    36 1   
    28    17    18 1   
    29    18    19 ar  
    30    18    27 ar  
    31    19    20 ar  
    32    19    37 1   
    33    20    21 1   
    34    20    24 ar  
    35    21    22 1   
    36    21    23 2   
    37    22    38 1   
    38    22    39 1   
    39    23    25 1   
    40    24    25 1   
    41    24    26 ar  
    42    25    40 1   
    43    26    27 ar  
    44    26    41 1   
    45    27    42 1   
@<TRIPOS>SUBSTRUCTURE
     1 0MY         1 TEMP              0 ****  ****    0 ROOT
