@<TRIPOS>MOLECULE
0MZ
   45    47     1     0     0
SMALL
No Charge or Current Charge


@<TRIPOS>ATOM
      1 F28         -4.8060    -2.6570     2.5150 f          1 0MZ      -0.113000
      2 C27         -3.8600    -3.0180     1.6190 c3         1 0MZ       0.356300
      3 F30         -2.6870    -3.0840     2.2900 f          1 0MZ      -0.113000
      4 F29         -4.1490    -4.2790     1.2260 f          1 0MZ      -0.113000
      5 C25         -3.8020    -2.0340     0.4430 ca         1 0MZ      -0.169300
      6 C26         -3.0200    -0.8600     0.5300 ca         1 0MZ      -0.119000
      7 C24         -4.5440    -2.2710    -0.7330 ca         1 0MZ      -0.084000
      8 C23         -4.4920    -1.3610    -1.8000 ca         1 0MZ      -0.091000
      9 C22         -3.7030    -0.2020    -1.7070 ca         1 0MZ      -0.096000
     10 C21         -2.9610     0.0600    -0.5350 ca         1 0MZ      -0.027000
     11 N18         -2.1430     1.2110    -0.3610 ns         1 0MZ      -0.146000
     12 C17         -1.8570     2.2920    -1.1870 c          1 0MZ       0.607100
     13 O19         -2.3290     2.4520    -2.3060 o          1 0MZ      -0.561100
     14 C16         -0.9030     3.3240    -0.5750 c3         1 0MZ      -0.147400
     15 C13          0.4940     3.2910    -1.2570 c5         1 0MZ      -0.026000
     16 C14          1.4730     4.3250    -0.7300 c2         1 0MZ       0.641600
     17 O20          1.2450     5.6240    -0.7960 oh         1 0MZ      -0.589600
     18 N15          2.5780     3.9550    -0.2080 ne         1 0MZ      -0.723000
     19 C11          2.7160     2.5740    -0.2040 ce         1 0MZ       0.654200
     20 S12          1.3330     1.6670    -0.9130 ss         1 0MZ      -0.248200
     21 N10          3.7740     1.9600     0.2860 nf         1 0MZ      -0.377700
     22 N9           3.8120     0.5680     0.2820 nf         1 0MZ      -0.503700
     23 C8           4.8910     0.0070     0.7940 ce         1 0MZ       0.543800
     24 C6           5.0630    -1.4800     0.8620 ca         1 0MZ      -0.286900
     25 C5           6.2540    -1.9820     1.4310 ca         1 0MZ      -0.033000
     26 C4           6.4750    -3.3660     1.5240 ca         1 0MZ      -0.170000
     27 C3           5.5110    -4.2680     1.0500 ca         1 0MZ      -0.042000
     28 C2           4.3240    -3.7800     0.4830 ca         1 0MZ      -0.174000
     29 C1           4.0970    -2.3990     0.3870 ca         1 0MZ       0.213100
     30 O1           2.9330    -1.9730    -0.1710 oh         1 0MZ      -0.538100
     31 H26         -2.4530    -0.6580     1.4360 ha         1 0MZ       0.124000
     32 H24         -5.1670    -3.1590    -0.8250 ha         1 0MZ       0.134000
     33 H23         -5.0660    -1.5540    -2.7040 ha         1 0MZ       0.126000
     34 H22         -3.6890     0.4770    -2.5540 ha         1 0MZ       0.153000
     35 H1          -1.6710     1.2420     0.5340 hn         1 0MZ       0.154000
     36 H161        -1.3470     4.3160    -0.7240 hc         1 0MZ       0.080700
     37 H162        -0.7890     3.1400     0.5000 hc         1 0MZ       0.080700
     38 H13          0.3770     3.4190    -2.3410 h1         1 0MZ       0.122700
     39 HO20         2.0540     5.9870    -0.3850 ho         1 0MZ       0.504000
     40 H8           5.7040     0.6200     1.1910 h4         1 0MZ       0.005800
     41 H5           7.0140    -1.2980     1.8040 ha         1 0MZ       0.112000
     42 H4           7.3970    -3.7390     1.9650 ha         1 0MZ       0.119000
     43 H3           5.6830    -5.3400     1.1230 ha         1 0MZ       0.115000
     44 H2           3.5760    -4.4760     0.1150 ha         1 0MZ       0.132000
     45 HO1          2.9600    -0.9850    -0.1480 ho         1 0MZ       0.516000
@<TRIPOS>BOND
     1     1     2 1   
     2     2     3 1   
     3     2     4 1   
     4     2     5 1   
     5     5     6 ar  
     6     5     7 ar  
     7     6    10 ar  
     8     6    31 1   
     9     7     8 ar  
    10     7    32 1   
    11     8     9 ar  
    12     8    33 1   
    13     9    10 ar  
    14     9    34 1   
    15    10    11 1   
    16    11    12 1   
    17    11    35 1   
    18    12    13 2   
    19    12    14 1   
    20    14    15 1   
    21    14    36 1   
    22    14    37 1   
    23    15    16 1   
    24    15    20 1   
    25    15    38 1   
    26    16    17 1   
    27    16    18 2   
    28    17    39 1   
    29    18    19 1   
    30    19    20 1   
    31    19    21 2   
    32    21    22 1   
    33    22    23 2   
    34    23    24 1   
    35    23    40 1   
    36    24    25 ar  
    37    24    29 ar  
    38    25    26 ar  
    39    25    41 1   
    40    26    27 ar  
    41    26    42 1   
    42    27    28 ar  
    43    27    43 1   
    44    28    29 ar  
    45    28    44 1   
    46    29    30 1   
    47    30    45 1   
@<TRIPOS>SUBSTRUCTURE
     1 0MZ         1 TEMP              0 ****  ****    0 ROOT
