@<TRIPOS>MOLECULE
0MZ
   45    47     1     0     0
SMALL
abcg2


@<TRIPOS>ATOM
      1 F28         -7.8320    -0.0930    -0.4810 f          1 0MZ      -0.113000
      2 C27         -7.1770    -0.6990     0.5210 c3         1 0MZ       0.356300
      3 F30         -7.2690     0.1080     1.5840 f          1 0MZ      -0.113000
      4 F29         -7.8630    -1.8100     0.8110 f          1 0MZ      -0.113000
      5 C25         -5.7580    -0.9910     0.1460 ca         1 0MZ      -0.169300
      6 C26         -4.7840    -0.0310     0.3690 ca         1 0MZ      -0.119000
      7 C24         -5.4380    -2.1890    -0.4810 ca         1 0MZ      -0.084000
      8 C23         -4.1260    -2.4110    -0.8640 ca         1 0MZ      -0.091000
      9 C22         -3.1370    -1.4650    -0.6410 ca         1 0MZ      -0.096000
     10 C21         -3.4650    -0.2580    -0.0230 ca         1 0MZ      -0.027000
     11 N18         -2.5420     0.7530     0.2590 ns         1 0MZ      -0.146000
     12 C17         -1.3140     0.9470    -0.2790 c          1 0MZ       0.607100
     13 O19         -0.8030     0.2220    -1.1110 o          1 0MZ      -0.561100
     14 C16         -0.6030     2.1700     0.2630 c3         1 0MZ      -0.147400
     15 C13          0.6580     2.4660    -0.5350 c5         1 0MZ      -0.026000
     16 C14          1.4230     3.6360     0.0160 c2         1 0MZ       0.641600
     17 O20          0.7640     4.7610     0.0990 oh         1 0MZ      -0.589600
     18 N15          2.6440     3.5020     0.3720 ne         1 0MZ      -0.723000
     19 C11          3.0850     2.2170     0.1880 ce         1 0MZ       0.654200
     20 S12          1.8670     1.1150    -0.4760 ss         1 0MZ      -0.248200
     21 N10          4.2820     1.8840     0.4840 nf         1 0MZ      -0.377700
     22 N9           4.5350     0.5670     0.2410 nf         1 0MZ      -0.503700
     23 C8           5.7350     0.1860     0.4780 ce         1 0MZ       0.543800
     24 C6           6.1520    -1.1850     0.2700 ca         1 0MZ      -0.286900
     25 C5           7.4810    -1.5350     0.5350 ca         1 0MZ      -0.033000
     26 C4           7.9320    -2.8270     0.3540 ca         1 0MZ      -0.170000
     27 C3           7.0400    -3.7970    -0.1000 ca         1 0MZ      -0.042000
     28 C2           5.7210    -3.4810    -0.3690 ca         1 0MZ      -0.174000
     29 C1           5.2600    -2.1770    -0.1910 ca         1 0MZ       0.213100
     30 O1           3.9820    -1.9090    -0.4630 oh         1 0MZ      -0.538100
     31 H26         -5.0350     0.9060     0.8490 ha         1 0MZ       0.124000
     32 H24         -6.1880    -2.9450    -0.6690 ha         1 0MZ       0.134000
     33 H23         -3.8600    -3.3430    -1.3440 ha         1 0MZ       0.126000
     34 H22         -2.1250    -1.6810    -0.9420 ha         1 0MZ       0.153000
     35 H1          -2.8700     1.4700     0.8890 hn         1 0MZ       0.154000
     36 H161        -1.2750     3.0310     0.2240 hc         1 0MZ       0.080700
     37 H162        -0.3590     2.0030     1.3160 hc         1 0MZ       0.080700
     38 H13          0.4020     2.6740    -1.5770 h1         1 0MZ       0.122700
     39 HO20         1.3250     5.4600     0.4680 ho         1 0MZ       0.504000
     40 H8           6.4800     0.8940     0.8420 h4         1 0MZ       0.005800
     41 H5           8.1590    -0.7670     0.8870 ha         1 0MZ       0.112000
     42 H4           8.9620    -3.0810     0.5630 ha         1 0MZ       0.119000
     43 H3           7.3780    -4.8150    -0.2460 ha         1 0MZ       0.115000
     44 H2           5.0330    -4.2400    -0.7210 ha         1 0MZ       0.132000
     45 HO1          3.8230    -0.9530    -0.2890 ho         1 0MZ       0.516000
@<TRIPOS>BOND
     1     1     2 1   
     2     2     3 1   
     3     2     4 1   
     4     2     5 1   
     5     5     6 ar  
     6     5     7 ar  
     7     6    10 ar  
     8     6    31 1   
     9     7     8 ar  
    10     7    32 1   
    11     8     9 ar  
    12     8    33 1   
    13     9    10 ar  
    14     9    34 1   
    15    10    11 1   
    16    11    12 1   
    17    11    35 1   
    18    12    13 2   
    19    12    14 1   
    20    14    15 1   
    21    14    36 1   
    22    14    37 1   
    23    15    16 1   
    24    15    20 1   
    25    15    38 1   
    26    16    17 1   
    27    16    18 2   
    28    17    39 1   
    29    18    19 1   
    30    19    20 1   
    31    19    21 2   
    32    21    22 1   
    33    22    23 2   
    34    23    24 1   
    35    23    40 1   
    36    24    25 ar  
    37    24    29 ar  
    38    25    26 ar  
    39    25    41 1   
    40    26    27 ar  
    41    26    42 1   
    42    27    28 ar  
    43    27    43 1   
    44    28    29 ar  
    45    28    44 1   
    46    29    30 1   
    47    30    45 1   
@<TRIPOS>SUBSTRUCTURE
     1 0MZ         1 TEMP              0 ****  ****    0 ROOT
