@<TRIPOS>MOLECULE
0N0
   80    84     1     0     0
SMALL
No Charge or Current Charge


@<TRIPOS>ATOM
      1 C1          -3.5690     1.8600    -3.2990 c6         1 0N0       0.155800
      2 C2          -3.9180     1.1870    -1.9330 c6         1 0N0       0.184500
      3 C3          -2.8450     1.5970    -0.8890 c6         1 0N0      -0.100400
      4 C4          -1.4340     1.2370    -1.4190 c6         1 0N0      -0.176700
      5 C5          -1.1260     1.8310    -2.8130 c6         1 0N0       0.158800
      6 N6          -2.2010     1.4900    -3.7830 n7         1 0N0      -0.846400
      7 N7          -5.2850     1.5410    -1.4820 n7         1 0N0      -0.872300
      8 C8          -0.3170     1.5000    -0.3980 c          1 0N0       0.609100
      9 S9          -6.2050     0.2790    -0.8700 sy         1 0N0       1.156600
     10 C10         -5.0800    -0.5070     0.2970 ca         1 0N0      -0.314500
     11 O11         -7.2830     0.9440    -0.1360 o          1 0N0      -0.533000
     12 O12         -6.4780    -0.6040    -2.0070 o          1 0N0      -0.533000
     13 C13         -4.9560    -0.0030     1.6090 ca         1 0N0      -0.014000
     14 C14         -4.0360    -0.5820     2.5000 ca         1 0N0      -0.134000
     15 C15         -3.2380    -1.6680     2.0980 ca         1 0N0      -0.019300
     16 C16         -3.3780    -2.1830     0.7960 ca         1 0N0      -0.134000
     17 C17         -4.2980    -1.6140    -0.1000 ca         1 0N0      -0.014000
     18 C18         -2.2290    -2.2730     3.0600 c3         1 0N0      -0.058800
     19 O19          0.0370     2.6320    -0.1000 o          1 0N0      -0.610100
     20 N20          0.2480     0.3760     0.1550 ns         1 0N0      -0.497900
     21 C21          1.4280     0.3600     1.0250 c3         1 0N0       0.106000
     22 C22          2.5480    -0.5810     0.4530 c6         1 0N0       0.050600
     23 O23          2.8310    -2.2950    -1.8930 os         1 0N0      -0.233200
     24 C24          1.9920    -2.0260     0.3650 ca         1 0N0      -0.141800
     25 C25          2.1750    -2.7990    -0.8020 ca         1 0N0       0.130600
     26 C26          1.6910    -4.1160    -0.8760 ca         1 0N0      -0.130000
     27 C27          1.0190    -4.6870     0.2150 ca         1 0N0      -0.079000
     28 C28          0.8440    -3.9390     1.3880 ca         1 0N0      -0.135500
     29 C29          1.3310    -2.6230     1.4670 ca         1 0N0      -0.080500
     30 C30          3.1230    -0.9630    -2.0300 ca         1 0N0       0.130600
     31 C31          2.9930    -0.0670    -0.9450 ca         1 0N0      -0.141800
     32 C32          3.2570     1.3050    -1.1820 ca         1 0N0      -0.080500
     33 C33          3.6580     1.7560    -2.4510 ca         1 0N0      -0.135500
     34 C34          3.7990     0.8490    -3.5100 ca         1 0N0      -0.079000
     35 C35          3.5290    -0.5100    -3.2960 ca         1 0N0      -0.130000
     36 C36          3.7620    -0.6280     1.4510 c3         1 0N0      -0.063400
     37 C37          4.5540     0.6780     1.7170 c3         1 0N0      -0.077400
     38 C38          5.6530     0.5040     2.7890 c3         1 0N0      -0.081400
     39 C39          6.4520     1.7970     3.0440 c3         1 0N0       0.159600
     40 O40          7.4350     1.5130     4.0520 os         1 0N0      -0.455000
     41 C41          8.2670     2.6320     4.4020 c3         1 0N0       0.147900
     42 H1          -4.3170     1.5600    -4.0480 h1         1 0N0       0.069700
     43 H2          -3.6390     2.9530    -3.1920 h1         1 0N0       0.069700
     44 H3          -3.8500     0.1030    -2.1060 h1         1 0N0       0.062700
     45 H4          -2.9010     2.6770    -0.6940 hc         1 0N0       0.062700
     46 H5          -3.0060     1.0970     0.0720 hc         1 0N0       0.062700
     47 H6          -1.4490     0.1460    -1.5520 hc         1 0N0       0.050700
     48 H7          -1.0410     2.9260    -2.7300 h1         1 0N0       0.069200
     49 H8          -0.1570     1.4550    -3.1780 h1         1 0N0       0.069200
     50 H9          -2.1800     0.4750    -3.9440 hn         1 0N0       0.410000
     51 H11         -5.2300     2.1510    -0.6700 hn         1 0N0       0.488000
     52 H12         -5.5550     0.8460     1.9370 ha         1 0N0       0.134500
     53 H13         -3.9370    -0.1770     3.5040 ha         1 0N0       0.118500
     54 H14         -2.7680    -3.0240     0.4750 ha         1 0N0       0.118500
     55 H15         -4.3860    -2.0250    -1.1040 ha         1 0N0       0.134500
     56 H16         -2.6050    -2.2640     4.0900 hc         1 0N0       0.050033
     57 H17         -2.0030    -3.3150     2.8020 hc         1 0N0       0.050033
     58 H18         -1.2880    -1.7110     3.0410 hc         1 0N0       0.050033
     59 H19         -0.1190    -0.5150    -0.1560 hn         1 0N0       0.317500
     60 H20          1.8120     1.3790     1.1440 h1         1 0N0       0.061200
     61 H21          1.1220     0.0280     2.0240 h1         1 0N0       0.061200
     62 H22          1.8390    -4.6940    -1.7850 ha         1 0N0       0.132000
     63 H23          0.6450    -5.7070     0.1550 ha         1 0N0       0.120000
     64 H24          0.3370    -4.3820     2.2420 ha         1 0N0       0.120000
     65 H25          1.1990    -2.0820     2.3990 ha         1 0N0       0.120000
     66 H26          3.1610     2.0390    -0.3870 ha         1 0N0       0.120000
     67 H27          3.8600     2.8130    -2.6110 ha         1 0N0       0.120000
     68 H28          4.1100     1.1980    -4.4930 ha         1 0N0       0.120000
     69 H29          3.6230    -1.2160    -4.1170 ha         1 0N0       0.132000
     70 H30          3.4130    -1.0040     2.4210 hc         1 0N0       0.050200
     71 H31          4.4770    -1.3780     1.0890 hc         1 0N0       0.050200
     72 H32          5.0320     1.0120     0.7890 hc         1 0N0       0.044700
     73 H33          3.8710     1.4720     2.0400 hc         1 0N0       0.044700
     74 H34          5.1940     0.1770     3.7300 hc         1 0N0       0.052700
     75 H35          6.3450    -0.2860     2.4730 hc         1 0N0       0.052700
     76 H36          6.9340     2.1220     2.1120 h1         1 0N0       0.019700
     77 H37          5.7700     2.5900     3.3790 h1         1 0N0       0.019700
     78 H38          8.9910     2.3420     5.1740 h1         1 0N0       0.028033
     79 H39          8.8250     2.9920     3.5270 h1         1 0N0       0.028033
     80 H40          7.6620     3.4600     4.7940 h1         1 0N0       0.028033
@<TRIPOS>BOND
     1     1     2 1   
     2     1     6 1   
     3     1    42 1   
     4     1    43 1   
     5     2     3 1   
     6     2     7 1   
     7     2    44 1   
     8     3     4 1   
     9     3    45 1   
    10     3    46 1   
    11     4     5 1   
    12     4     8 1   
    13     4    47 1   
    14     5     6 1   
    15     5    48 1   
    16     5    49 1   
    17     6    50 1   
    18     7     9 1   
    19     7    51 1   
    20     8    19 2   
    21     8    20 1   
    22     9    10 1   
    23     9    11 2   
    24     9    12 2   
    25    10    13 ar  
    26    10    17 ar  
    27    13    14 ar  
    28    13    52 1   
    29    14    15 ar  
    30    14    53 1   
    31    15    16 ar  
    32    15    18 1   
    33    16    17 ar  
    34    16    54 1   
    35    17    55 1   
    36    18    56 1   
    37    18    57 1   
    38    18    58 1   
    39    20    21 1   
    40    20    59 1   
    41    21    22 1   
    42    21    60 1   
    43    21    61 1   
    44    22    24 1   
    45    22    31 1   
    46    22    36 1   
    47    23    25 1   
    48    23    30 1   
    49    24    25 ar  
    50    24    29 ar  
    51    25    26 ar  
    52    26    27 ar  
    53    26    62 1   
    54    27    28 ar  
    55    27    63 1   
    56    28    29 ar  
    57    28    64 1   
    58    29    65 1   
    59    30    31 ar  
    60    30    35 ar  
    61    31    32 ar  
    62    32    33 ar  
    63    32    66 1   
    64    33    34 ar  
    65    33    67 1   
    66    34    35 ar  
    67    34    68 1   
    68    35    69 1   
    69    36    37 1   
    70    36    70 1   
    71    36    71 1   
    72    37    38 1   
    73    37    72 1   
    74    37    73 1   
    75    38    39 1   
    76    38    74 1   
    77    38    75 1   
    78    39    40 1   
    79    39    76 1   
    80    39    77 1   
    81    40    41 1   
    82    41    78 1   
    83    41    79 1   
    84    41    80 1   
@<TRIPOS>SUBSTRUCTURE
     1 0N0         1 TEMP              0 ****  ****    0 ROOT
