@<TRIPOS>MOLECULE
0N0
   80    84     1     0     0
SMALL
abcg2


@<TRIPOS>ATOM
      1 C1          -3.2870     1.7080    -3.1670 c6         1 0N0       0.155800
      2 C2          -3.7670     1.1260    -1.8360 c6         1 0N0       0.184500
      3 C3          -2.6830     1.2710    -0.7720 c6         1 0N0      -0.100400
      4 C4          -1.3710     0.6550    -1.2560 c6         1 0N0      -0.176700
      5 C5          -0.9810     1.2500    -2.6220 c6         1 0N0       0.158800
      6 N6          -2.0300     1.1440    -3.6160 n7         1 0N0      -0.846400
      7 N7          -5.0180     1.7750    -1.4420 n7         1 0N0      -0.872300
      8 C8          -0.2560     0.8990    -0.2620 c          1 0N0       0.609100
      9 S9          -6.2410     0.8910    -0.7890 sy         1 0N0       1.156600
     10 C10         -5.5750     0.0730     0.6300 ca         1 0N0      -0.314500
     11 O11         -7.2370     1.8560    -0.3500 o          1 0N0      -0.533000
     12 O12         -6.6020    -0.1310    -1.7580 o          1 0N0      -0.533000
     13 C13         -5.4460     0.7820     1.8200 ca         1 0N0      -0.014000
     14 C14         -4.8230     0.1820     2.8990 ca         1 0N0      -0.134000
     15 C15         -4.3170    -1.1170     2.8110 ca         1 0N0      -0.019300
     16 C16         -4.4720    -1.8080     1.6130 ca         1 0N0      -0.134000
     17 C17         -5.0990    -1.2240     0.5220 ca         1 0N0      -0.014000
     18 C18         -3.6270    -1.7420     3.9850 c3         1 0N0      -0.058800
     19 O19         -0.0190     2.0210     0.1680 o          1 0N0      -0.610100
     20 N20          0.4590    -0.1890     0.0730 ns         1 0N0      -0.497900
     21 C21          1.6370    -0.1680     0.9000 c3         1 0N0       0.106000
     22 C22          2.8420    -0.8220     0.2060 c6         1 0N0       0.050600
     23 O23          3.7600    -2.1850    -2.1610 os         1 0N0      -0.233200
     24 C24          2.5540    -2.2870    -0.0850 ca         1 0N0      -0.141800
     25 C25          3.0640    -2.8880    -1.2310 ca         1 0N0       0.130600
     26 C26          2.9010    -4.2450    -1.4840 ca         1 0N0      -0.130000
     27 C27          2.2160    -5.0320    -0.5760 ca         1 0N0      -0.079000
     28 C28          1.6930    -4.4610     0.5780 ca         1 0N0      -0.135500
     29 C29          1.8690    -3.1060     0.8120 ca         1 0N0      -0.080500
     30 C30          3.6340    -0.8310    -2.1890 ca         1 0N0       0.130600
     31 C31          3.1600    -0.1110    -1.0980 ca         1 0N0      -0.141800
     32 C32          3.0440     1.2710    -1.2550 ca         1 0N0      -0.080500
     33 C33          3.4020     1.9060    -2.4330 ca         1 0N0      -0.135500
     34 C34          3.8920     1.1600    -3.4970 ca         1 0N0      -0.079000
     35 C35          4.0030    -0.2130    -3.3790 ca         1 0N0      -0.130000
     36 C36          4.0600    -0.7920     1.1650 c3         1 0N0      -0.063400
     37 C37          4.5830     0.5810     1.5700 c3         1 0N0      -0.077400
     38 C38          5.7580     0.4630     2.5360 c3         1 0N0      -0.081400
     39 C39          6.2850     1.8240     2.9450 c3         1 0N0       0.159600
     40 O40          7.3620     1.6630     3.8350 os         1 0N0      -0.455000
     41 C41          7.8980     2.8880     4.2620 c3         1 0N0       0.147900
     42 H1          -4.0480     1.5490    -3.9330 h1         1 0N0       0.069700
     43 H2          -3.1640     2.7920    -3.0570 h1         1 0N0       0.069700
     44 H3          -3.9780     0.0640    -1.9980 h1         1 0N0       0.062700
     45 H4          -2.5300     2.3350    -0.5620 hc         1 0N0       0.062700
     46 H5          -2.9960     0.8010     0.1630 hc         1 0N0       0.062700
     47 H6          -1.5220    -0.4220    -1.3900 hc         1 0N0       0.050700
     48 H7          -0.7330     2.3080    -2.4890 h1         1 0N0       0.069200
     49 H8          -0.0840     0.7560    -3.0010 h1         1 0N0       0.069200
     50 H9          -2.1640     0.1720    -3.8670 hn         1 0N0       0.410000
     51 H11         -4.9040     2.6730    -0.9840 hn         1 0N0       0.488000
     52 H12         -5.8190     1.7940     1.9120 ha         1 0N0       0.134500
     53 H13         -4.7250     0.7350     3.8250 ha         1 0N0       0.118500
     54 H14         -4.0970    -2.8190     1.5250 ha         1 0N0       0.118500
     55 H15         -5.2050    -1.7860    -0.3960 ha         1 0N0       0.134500
     56 H16         -4.2930    -1.7970     4.8470 hc         1 0N0       0.050033
     57 H17         -3.2840    -2.7500     3.7590 hc         1 0N0       0.050033
     58 H18         -2.7610    -1.1520     4.2870 hc         1 0N0       0.050033
     59 H19          0.1740    -1.0780    -0.3070 hn         1 0N0       0.317500
     60 H20          1.8560     0.8650     1.1550 h1         1 0N0       0.061200
     61 H21          1.4450    -0.6690     1.8530 h1         1 0N0       0.061200
     62 H22          3.3120    -4.6710    -2.3910 ha         1 0N0       0.132000
     63 H23          2.0870    -6.0880    -0.7720 ha         1 0N0       0.120000
     64 H24          1.1570    -5.0660     1.2960 ha         1 0N0       0.120000
     65 H25          1.4710    -2.6870     1.7280 ha         1 0N0       0.120000
     66 H26          2.6670     1.8760    -0.4420 ha         1 0N0       0.120000
     67 H27          3.3010     2.9790    -2.5160 ha         1 0N0       0.120000
     68 H28          4.1800     1.6440    -4.4210 ha         1 0N0       0.120000
     69 H29          4.3680    -0.8140    -4.2020 ha         1 0N0       0.132000
     70 H30          3.7760    -1.3470     2.0660 hc         1 0N0       0.050200
     71 H31          4.8740    -1.3590     0.7030 hc         1 0N0       0.050200
     72 H32          4.9020     1.1360     0.6850 hc         1 0N0       0.044700
     73 H33          3.7930     1.1720     2.0430 hc         1 0N0       0.044700
     74 H34          5.4470    -0.0910     3.4280 hc         1 0N0       0.052700
     75 H35          6.5610    -0.1140     2.0670 hc         1 0N0       0.052700
     76 H36          6.6020     2.3860     2.0530 h1         1 0N0       0.019700
     77 H37          5.4800     2.4100     3.4140 h1         1 0N0       0.019700
     78 H38          8.7170     2.6780     4.9500 h1         1 0N0       0.028033
     79 H39          8.2930     3.4790     3.4260 h1         1 0N0       0.028033
     80 H40          7.1560     3.5040     4.7840 h1         1 0N0       0.028033
@<TRIPOS>BOND
     1     1     2 1   
     2     1     6 1   
     3     1    42 1   
     4     1    43 1   
     5     2     3 1   
     6     2     7 1   
     7     2    44 1   
     8     3     4 1   
     9     3    45 1   
    10     3    46 1   
    11     4     5 1   
    12     4     8 1   
    13     4    47 1   
    14     5     6 1   
    15     5    48 1   
    16     5    49 1   
    17     6    50 1   
    18     7     9 1   
    19     7    51 1   
    20     8    19 2   
    21     8    20 1   
    22     9    10 1   
    23     9    11 2   
    24     9    12 2   
    25    10    13 ar  
    26    10    17 ar  
    27    13    14 ar  
    28    13    52 1   
    29    14    15 ar  
    30    14    53 1   
    31    15    16 ar  
    32    15    18 1   
    33    16    17 ar  
    34    16    54 1   
    35    17    55 1   
    36    18    56 1   
    37    18    57 1   
    38    18    58 1   
    39    20    21 1   
    40    20    59 1   
    41    21    22 1   
    42    21    60 1   
    43    21    61 1   
    44    22    24 1   
    45    22    31 1   
    46    22    36 1   
    47    23    25 1   
    48    23    30 1   
    49    24    25 ar  
    50    24    29 ar  
    51    25    26 ar  
    52    26    27 ar  
    53    26    62 1   
    54    27    28 ar  
    55    27    63 1   
    56    28    29 ar  
    57    28    64 1   
    58    29    65 1   
    59    30    31 ar  
    60    30    35 ar  
    61    31    32 ar  
    62    32    33 ar  
    63    32    66 1   
    64    33    34 ar  
    65    33    67 1   
    66    34    35 ar  
    67    34    68 1   
    68    35    69 1   
    69    36    37 1   
    70    36    70 1   
    71    36    71 1   
    72    37    38 1   
    73    37    72 1   
    74    37    73 1   
    75    38    39 1   
    76    38    74 1   
    77    38    75 1   
    78    39    40 1   
    79    39    76 1   
    80    39    77 1   
    81    40    41 1   
    82    41    78 1   
    83    41    79 1   
    84    41    80 1   
@<TRIPOS>SUBSTRUCTURE
     1 0N0         1 TEMP              0 ****  ****    0 ROOT
