@<TRIPOS>MOLECULE
0N1
   82    85     1     0     0
SMALL
bcc


@<TRIPOS>ATOM
      1 C12          6.5450     1.5790    -0.4690 ca         1 0N1      -0.095300
      2 C6           1.9260     1.5320     2.4940 ca         1 0N1      -0.062000
      3 C1           0.9440     0.9990     3.3190 ca         1 0N1      -0.093300
      4 C2           0.4670    -0.2790     3.0400 ca         1 0N1      -0.076000
      5 C5           2.4300     0.8120     1.4150 ca         1 0N1      -0.155600
      6 C4           1.9100    -0.4450     1.1230 ca         1 0N1      -0.083000
      7 C3           0.9240    -0.9910     1.9380 ca         1 0N1      -0.153600
      8 C8           3.4870     1.4450     0.5650 c          1 0N1       0.681700
      9 C17          7.2060     2.6220    -1.1090 ca         1 0N1      -0.113000
     10 C18          5.5730    -0.1620    -1.9980 c3         1 0N1      -0.060200
     11 C19          4.3070    -0.7010    -2.5820 c2         1 0N1      -0.148200
     12 C37         -6.3310     0.7080    -0.5990 ca         1 0N1      -0.103000
     13 C39         -8.5830     0.6560    -3.3320 c3         1 0N1      -0.084100
     14 C40         -8.5260     2.9710    -2.3460 c3         1 0N1      -0.084100
     15 C41          0.2460    -2.3930    -1.8410 c3         1 0N1       0.134400
     16 C35         -8.6900     0.7600    -0.2060 ca         1 0N1      -0.117000
     17 C36         -7.6080     1.0200    -1.0500 ca         1 0N1      -0.075300
     18 C33         -7.2050    -0.1000     1.4810 ca         1 0N1      -0.124000
     19 C25          0.4230    -2.3900     1.7450 c          1 0N1       0.686700
     20 C27         -1.9800    -1.9070    -0.7290 c3         1 0N1       0.134100
     21 C29         -2.6700    -1.3520     0.5210 c3         1 0N1       0.114800
     22 C31         -4.7150    -0.1660     1.1190 c3         1 0N1       0.214100
     23 C32         -6.1130     0.1530     0.6620 ca         1 0N1      -0.097300
     24 O26          0.4880    -3.1800     2.6780 o          1 0N1      -0.602100
     25 N24         -0.0800    -2.7450     0.5500 ns         1 0N1      -0.563900
     26 C23         -0.4570    -1.9130    -0.5750 c3         1 0N1       0.111700
     27 N30         -4.0510    -1.0570     0.1830 n7         1 0N1      -0.836200
     28 C34         -8.4910     0.2060     1.0470 ca         1 0N1      -0.130000
     29 O28         -2.3160    -1.1070    -1.8330 oh         1 0N1      -0.606800
     30 O22          1.6280    -2.3340    -1.6070 os         1 0N1      -0.424600
     31 C21          2.4440    -2.3340    -2.7630 c3         1 0N1       0.177600
     32 C20          3.8040    -1.9020    -2.3180 c2         1 0N1      -0.179200
     33 C11          5.2710     1.0240    -1.0640 c3         1 0N1       0.169000
     34 C16          8.4060     3.1130    -0.6120 ca         1 0N1      -0.128500
     35 C15          8.9600     2.5630     0.5370 ca         1 0N1      -0.124000
     36 C14          8.3060     1.5210     1.1810 ca         1 0N1      -0.128500
     37 C13          7.1070     1.0310     0.6800 ca         1 0N1      -0.113000
     38 N10          4.3170     0.5970    -0.0640 ns         1 0N1      -0.568900
     39 C7           0.3970     1.7760     4.4790 c3         1 0N1      -0.046800
     40 H1           2.3160     2.5210     2.7020 ha         1 0N1       0.154000
     41 H2          -0.2840    -0.7190     3.6860 ha         1 0N1       0.141000
     42 H3           2.2490    -0.9990     0.2560 ha         1 0N1       0.159000
     43 H4           6.7770     3.0600    -2.0030 ha         1 0N1       0.130000
     44 H5           6.1080    -0.9390    -1.4450 hc         1 0N1       0.060200
     45 H6           6.2450     0.1950    -2.7820 hc         1 0N1       0.060200
     46 H7           3.7380    -0.0160    -3.2070 ha         1 0N1       0.124000
     47 H9          -6.8300     1.7820    -2.8630 hc         1 0N1       0.050700
     48 H10         -8.7030     1.0830    -4.3290 hc         1 0N1       0.035033
     49 H11         -8.0600    -0.2950    -3.4360 hc         1 0N1       0.035033
     50 H12         -9.5800     0.4480    -2.9390 hc         1 0N1       0.035033
     51 H13         -9.5360     2.8710    -1.9440 hc         1 0N1       0.035033
     52 H14         -7.9820     3.6730    -1.7130 hc         1 0N1       0.035033
     53 H15         -8.6130     3.4140    -3.3400 hc         1 0N1       0.035033
     54 H16         -0.0780    -3.4140    -2.0920 h1         1 0N1       0.041700
     55 H17         -0.0400    -1.7460    -2.6790 h1         1 0N1       0.041700
     56 H18         -9.6980     0.9900    -0.5310 ha         1 0N1       0.131000
     57 H19         -7.0550    -0.5380     2.4610 ha         1 0N1       0.128000
     58 H20         -2.3200    -2.9460    -0.8850 h1         1 0N1       0.033700
     59 H21         -2.5700    -2.0440     1.3650 h1         1 0N1       0.050200
     60 H22         -2.1860    -0.4130     0.8100 h1         1 0N1       0.050200
     61 H23         -4.1260     0.7550     1.1730 h1         1 0N1       0.041700
     62 H24         -4.7490    -0.5710     2.1390 h1         1 0N1       0.041700
     63 H25         -0.3600    -3.7160     0.4900 hn         1 0N1       0.311500
     64 H26         -0.1400    -0.8880    -0.3750 h1         1 0N1       0.086700
     65 H27         -4.5780    -1.9210     0.1160 hn         1 0N1       0.364800
     66 H29         -9.3390     0.0060     1.6900 ha         1 0N1       0.131000
     67 H30         -3.2040    -0.7700    -1.6170 ho         1 0N1       0.442000
     68 H31          2.4680    -3.3310    -3.2210 h1         1 0N1       0.032200
     69 H32          2.0510    -1.6390    -3.5170 h1         1 0N1       0.032200
     70 H33          4.3550    -2.5920    -1.6840 ha         1 0N1       0.129000
     71 H34          4.8010     1.8110    -1.6590 h1         1 0N1       0.074700
     72 H35          8.9060     3.9280    -1.1200 ha         1 0N1       0.130500
     73 H36          9.8930     2.9460     0.9290 ha         1 0N1       0.130000
     74 H37          8.7290     1.0870     2.0780 ha         1 0N1       0.130500
     75 H38          6.6040     0.2230     1.1970 ha         1 0N1       0.130000
     76 H39          4.2390    -0.3900     0.1200 hn         1 0N1       0.322500
     77 H40         -0.6020     2.1550     4.2550 hc         1 0N1       0.045700
     78 H41          0.3120     1.1540     5.3710 hc         1 0N1       0.045700
     79 H42          1.0260     2.6310     4.7220 hc         1 0N1       0.045700
     80 O9           3.5730     2.6600     0.4550 o          1 0N1      -0.597100
     81 H8          -5.4810     0.9030    -1.2440 ha         1 0N1       0.136000
     82 C38         -7.8180     1.6180    -2.4220 c3         1 0N1      -0.017400
@<TRIPOS>BOND
     1     1     9 ar  
     2     1    33 1   
     3     1    37 ar  
     4     2     3 ar  
     5     2     5 ar  
     6     2    40 1   
     7     3     4 ar  
     8     3    39 1   
     9     4     7 ar  
    10     4    41 1   
    11     5     6 ar  
    12     5     8 1   
    13     6     7 ar  
    14     6    42 1   
    15     7    19 1   
    16     8    38 1   
    17     8    80 2   
    18     9    34 ar  
    19     9    43 1   
    20    10    11 1   
    21    10    33 1   
    22    10    44 1   
    23    10    45 1   
    24    11    32 2   
    25    11    46 1   
    26    12    17 ar  
    27    12    23 ar  
    28    12    81 1   
    29    13    48 1   
    30    13    49 1   
    31    13    50 1   
    32    13    82 1   
    33    14    51 1   
    34    14    52 1   
    35    14    53 1   
    36    14    82 1   
    37    15    26 1   
    38    15    30 1   
    39    15    54 1   
    40    15    55 1   
    41    16    17 ar  
    42    16    28 ar  
    43    16    56 1   
    44    17    82 1   
    45    18    23 ar  
    46    18    28 ar  
    47    18    57 1   
    48    19    24 2   
    49    19    25 1   
    50    20    21 1   
    51    20    26 1   
    52    20    29 1   
    53    20    58 1   
    54    21    27 1   
    55    21    59 1   
    56    21    60 1   
    57    22    23 1   
    58    22    27 1   
    59    22    61 1   
    60    22    62 1   
    61    25    26 1   
    62    25    63 1   
    63    26    64 1   
    64    27    65 1   
    65    28    66 1   
    66    29    67 1   
    67    30    31 1   
    68    31    32 1   
    69    31    68 1   
    70    31    69 1   
    71    32    70 1   
    72    33    38 1   
    73    33    71 1   
    74    34    35 ar  
    75    34    72 1   
    76    35    36 ar  
    77    35    73 1   
    78    36    37 ar  
    79    36    74 1   
    80    37    75 1   
    81    38    76 1   
    82    39    77 1   
    83    39    78 1   
    84    39    79 1   
    85    47    82 1   
@<TRIPOS>SUBSTRUCTURE
     1 0N1         1 TEMP              0 ****  ****    0 ROOT
