@<TRIPOS>MOLECULE
0N1
   82    85     1     0     0
SMALL
No Charge or Current Charge


@<TRIPOS>ATOM
      1 C12          6.4400     1.5770    -0.6090 ca         1 0N1      -0.095300
      2 C6           1.5820     1.8960     2.0530 ca         1 0N1      -0.044000
      3 C1           0.5780     1.4240     2.9170 ca         1 0N1      -0.093300
      4 C2           0.2240     0.0640     2.8950 ca         1 0N1      -0.058000
      5 C5           2.2570     1.0200     1.1750 ca         1 0N1      -0.155600
      6 C4           1.8740    -0.3430     1.1520 ca         1 0N1      -0.065000
      7 C3           0.8470    -0.8210     1.9960 ca         1 0N1      -0.153600
      8 C8           3.3640     1.5670     0.2940 c          1 0N1       0.614700
      9 C17          6.9510     2.8170    -1.0410 ca         1 0N1      -0.095000
     10 C18          5.6010    -0.2800    -2.1380 c3         1 0N1      -0.060200
     11 C19          4.3820    -1.0310    -2.6360 c2         1 0N1      -0.198200
     12 C37         -6.2510     0.9060    -0.3910 ca         1 0N1      -0.085000
     13 C39         -8.2460     1.7900    -3.2640 c3         1 0N1      -0.084100
     14 C40         -8.6200     3.4510    -1.3560 c3         1 0N1      -0.084100
     15 C41          0.5070    -2.8440    -1.6780 c3         1 0N1       0.157600
     16 C35         -8.6350     0.4380    -0.4500 ca         1 0N1      -0.099000
     17 C36         -7.5340     1.1980    -0.8960 ca         1 0N1      -0.075300
     18 C33         -7.1710    -0.8800     0.9800 ca         1 0N1      -0.106000
     19 C25          0.4520    -2.2760     1.9990 c          1 0N1       0.619700
     20 C27         -1.7860    -2.3050    -0.6140 c3         1 0N1       0.157300
     21 C29         -2.5610    -1.6670     0.5720 c3         1 0N1       0.114800
     22 C31         -4.6710    -0.4300     1.0840 c3         1 0N1       0.214100
     23 C32         -6.0620    -0.1290     0.5460 ca         1 0N1      -0.097300
     24 O26          0.4060    -2.9200     3.0350 o          1 0N1      -0.602100
     25 N24          0.1880    -2.9030     0.8010 ns         1 0N1      -0.496900
     26 C23         -0.2380    -2.2460    -0.4560 c3         1 0N1       0.111700
     27 N30         -3.9330    -1.2800     0.1340 n7         1 0N1      -0.891400
     28 C34         -8.4540    -0.5970     0.4830 ca         1 0N1      -0.112000
     29 O28         -2.2280    -1.5950    -1.7720 oh         1 0N1      -0.669000
     30 O22          1.9040    -2.5460    -1.5220 os         1 0N1      -0.471000
     31 C21          2.7520    -2.9570    -2.5990 c3         1 0N1       0.200800
     32 C20          4.0800    -2.3010    -2.3210 c2         1 0N1      -0.229200
     33 C11          5.2200     0.9670    -1.3010 c3         1 0N1       0.169000
     34 C16          8.0730     3.3830    -0.4100 ca         1 0N1      -0.110500
     35 C15          8.6920     2.7140     0.6590 ca         1 0N1      -0.106000
     36 C14          8.1880     1.4780     1.0970 ca         1 0N1      -0.110500
     37 C13          7.0670     0.9110     0.4660 ca         1 0N1      -0.095000
     38 N10          4.1590     0.6420    -0.3450 ns         1 0N1      -0.501900
     39 C7          -0.1240     2.3800     3.8700 c3         1 0N1      -0.046800
     40 H1           1.8520     2.9500     2.0810 ha         1 0N1       0.136000
     41 H2          -0.5510    -0.3040     3.5640 ha         1 0N1       0.123000
     42 H3           2.3710    -1.0470     0.4900 ha         1 0N1       0.141000
     43 H4           6.4800     3.3460    -1.8670 ha         1 0N1       0.112000
     44 H5           6.2240    -0.9450    -1.5270 hc         1 0N1       0.060200
     45 H6           6.2260     0.0350    -2.9830 hc         1 0N1       0.060200
     46 H7           3.6700    -0.4190    -3.1950 ha         1 0N1       0.174000
     47 H9          -6.7420     2.7810    -2.1190 hc         1 0N1       0.050700
     48 H10         -8.2950     2.5950    -4.0070 hc         1 0N1       0.035033
     49 H11         -7.5800     1.0100    -3.6530 hc         1 0N1       0.035033
     50 H12         -9.2500     1.3630    -3.1570 hc         1 0N1       0.035033
     51 H13         -9.6390     3.0890    -1.1730 hc         1 0N1       0.035033
     52 H14         -8.2160     3.8320    -0.4110 hc         1 0N1       0.035033
     53 H15         -8.6760     4.2870    -2.0630 hc         1 0N1       0.035033
     54 H16          0.3370    -3.9280    -1.7270 h1         1 0N1       0.041700
     55 H17          0.1260    -2.3920    -2.6020 h1         1 0N1       0.041700
     56 H18         -9.6340     0.6450    -0.8260 ha         1 0N1       0.113000
     57 H19         -7.0400    -1.6840     1.7020 ha         1 0N1       0.110000
     58 H20         -2.0920    -3.3570    -0.6940 h1         1 0N1       0.033700
     59 H21         -2.5930    -2.3690     1.4170 h1         1 0N1       0.050200
     60 H22         -2.0110    -0.7750     0.9040 h1         1 0N1       0.050200
     61 H23         -4.1370     0.5170     1.2480 h1         1 0N1       0.041700
     62 H24         -4.7590    -0.9280     2.0590 h1         1 0N1       0.041700
     63 H25          0.0470    -3.9030     0.8720 hn         1 0N1       0.311500
     64 H26          0.0260    -1.1830    -0.4180 h1         1 0N1       0.086700
     65 H27         -4.4890    -2.1380     0.0040 hn         1 0N1       0.420000
     66 H29         -9.3080    -1.1790     0.8210 ha         1 0N1       0.113000
     67 H30         -3.0620    -1.1830    -1.4130 ho         1 0N1       0.481000
     68 H31          2.8560    -4.0500    -2.6250 h1         1 0N1       0.032200
     69 H32          2.3590    -2.6160    -3.5660 h1         1 0N1       0.032200
     70 H33          4.7580    -2.9100    -1.7220 ha         1 0N1       0.179000
     71 H34          4.8060     1.7100    -1.9970 h1         1 0N1       0.074700
     72 H35          8.4620     4.3410    -0.7500 ha         1 0N1       0.112500
     73 H36          9.5600     3.1520     1.1470 ha         1 0N1       0.112000
     74 H37          8.6660     0.9590     1.9250 ha         1 0N1       0.112500
     75 H38          6.6840    -0.0450     0.8150 ha         1 0N1       0.112000
     76 H39          3.9430    -0.3340    -0.1950 hn         1 0N1       0.322500
     77 H40         -1.0050     2.8280     3.3950 hc         1 0N1       0.045700
     78 H41         -0.4600     1.8660     4.7790 hc         1 0N1       0.045700
     79 H42          0.5400     3.1950     4.1820 hc         1 0N1       0.045700
     80 O9           3.5370     2.7690     0.1440 o          1 0N1      -0.597100
     81 H8          -5.3910     1.4810    -0.7270 ha         1 0N1       0.118000
     82 C38         -7.7190     2.3260    -1.9140 c3         1 0N1      -0.017400
@<TRIPOS>BOND
     1     1     9 ar  
     2     1    33 1   
     3     1    37 ar  
     4     2     3 ar  
     5     2     5 ar  
     6     2    40 1   
     7     3     4 ar  
     8     3    39 1   
     9     4     7 ar  
    10     4    41 1   
    11     5     6 ar  
    12     5     8 1   
    13     6     7 ar  
    14     6    42 1   
    15     7    19 1   
    16     8    38 1   
    17     8    80 2   
    18     9    34 ar  
    19     9    43 1   
    20    10    11 1   
    21    10    33 1   
    22    10    44 1   
    23    10    45 1   
    24    11    32 2   
    25    11    46 1   
    26    12    17 ar  
    27    12    23 ar  
    28    12    81 1   
    29    13    48 1   
    30    13    49 1   
    31    13    50 1   
    32    13    82 1   
    33    14    51 1   
    34    14    52 1   
    35    14    53 1   
    36    14    82 1   
    37    15    26 1   
    38    15    30 1   
    39    15    54 1   
    40    15    55 1   
    41    16    17 ar  
    42    16    28 ar  
    43    16    56 1   
    44    17    82 1   
    45    18    23 ar  
    46    18    28 ar  
    47    18    57 1   
    48    19    24 2   
    49    19    25 1   
    50    20    21 1   
    51    20    26 1   
    52    20    29 1   
    53    20    58 1   
    54    21    27 1   
    55    21    59 1   
    56    21    60 1   
    57    22    23 1   
    58    22    27 1   
    59    22    61 1   
    60    22    62 1   
    61    25    26 1   
    62    25    63 1   
    63    26    64 1   
    64    27    65 1   
    65    28    66 1   
    66    29    67 1   
    67    30    31 1   
    68    31    32 1   
    69    31    68 1   
    70    31    69 1   
    71    32    70 1   
    72    33    38 1   
    73    33    71 1   
    74    34    35 ar  
    75    34    72 1   
    76    35    36 ar  
    77    35    73 1   
    78    36    37 ar  
    79    36    74 1   
    80    37    75 1   
    81    38    76 1   
    82    39    77 1   
    83    39    78 1   
    84    39    79 1   
    85    47    82 1   
@<TRIPOS>SUBSTRUCTURE
     1 0N1         1 TEMP              0 ****  ****    0 ROOT
