@<TRIPOS>MOLECULE
0N2
   59    61     1     0     0
SMALL
No Charge or Current Charge


@<TRIPOS>ATOM
      1 O41          0.8860    -4.3740    -1.3620 o          1 0N2      -0.566000
      2 C41          1.1200    -3.3960    -0.6680 c          1 0N2       0.615200
      3 C51          0.9370    -3.3390     0.7990 cc         1 0N2      -0.264400
      4 C5A          0.4190    -4.5960     1.4550 c3         1 0N2      -0.010900
      5 C61          1.2310    -2.1770     1.4790 cd         1 0N2       0.002600
      6 N31          1.6000    -2.2530    -1.2140 ns         1 0N2      -0.436500
      7 C21          1.9150    -1.0870    -0.5960 c          1 0N2       0.644000
      8 O21          2.3960    -0.1720    -1.2460 o          1 0N2      -0.555000
      9 N11          1.7010    -1.0540     0.8010 n          1 0N2      -0.324000
     10 C1X          1.8660     0.2130     1.5600 c5         1 0N2       0.357700
     11 O4X          1.3500     1.3480     0.8580 os         1 0N2      -0.413000
     12 C2X          3.3870     0.4720     1.8000 c5         1 0N2      -0.143400
     13 C3X          3.6100     1.8410     1.0920 c5         1 0N2       0.127300
     14 O3X          4.6230     2.6190     1.7400 oh         1 0N2      -0.720000
     15 C4X          2.1860     2.4660     1.1990 c5         1 0N2       0.160300
     16 C5X          1.9370     3.6780     0.2550 c3         1 0N2       0.224600
     17 O5X          0.5660     4.1160     0.3560 os         1 0N2      -0.598400
     18 P           -0.3850     4.0910    -0.9490 p5         1 0N2       1.469800
     19 O1P         -1.6510     4.8150    -0.6320 o          1 0N2      -0.848000
     20 O2P          0.3450     4.6980    -2.1010 o          1 0N2      -0.848000
     21 OPP         -0.5710     2.5310    -1.0270 os         1 0N2      -0.731800
     22 P2          -1.4710     2.0370    -2.2190 p5         1 0N2       1.473800
     23 O3P         -2.9170     2.3790    -2.0800 o          1 0N2      -0.841500
     24 O4P         -0.9340     2.3950    -3.5650 o          1 0N2      -0.841500
     25 O1          -1.2550     0.4610    -1.9870 os         1 0N2      -0.578400
     26 C1          -2.1310    -0.2430    -1.1130 c6         1 0N2       0.464300
     27 C2          -2.0740     0.2340     0.3650 c6         1 0N2      -0.135400
     28 C3          -2.9800    -0.6590     1.2420 c6         1 0N2       0.166500
     29 N3          -2.9150    -0.2400     2.6620 n8         1 0N2      -1.008200
     30 C4          -2.6100    -2.1710     1.0770 c6         1 0N2       0.131300
     31 O4          -3.5040    -3.0130     1.8420 oh         1 0N2      -0.735000
     32 C5          -2.5870    -2.5550    -0.4410 c6         1 0N2       0.162300
     33 O5          -1.7430    -1.6330    -1.1720 os         1 0N2      -0.462000
     34 C6          -3.9820    -2.6240    -1.1320 c3         1 0N2      -0.114100
     35 H1          -0.5400    -4.9030     1.0210 hc         1 0N2       0.033033
     36 H2           1.1280    -5.4240     1.3320 hc         1 0N2       0.033033
     37 H3           0.2640    -4.4480     2.5310 hc         1 0N2       0.033033
     38 H4           1.1140    -2.0480     2.5520 h4         1 0N2       0.181000
     39 H5           1.7400    -2.2680    -2.2090 hn         1 0N2       0.358500
     40 H6           1.3400     0.1010     2.5160 h2         1 0N2       0.041700
     41 H7           3.5910     0.5300     2.8760 hc         1 0N2       0.047700
     42 H8           4.0340    -0.3130     1.3920 hc         1 0N2       0.047700
     43 H9           3.8610     1.6850     0.0320 h1         1 0N2       0.083700
     44 H10          5.4630     2.1050     1.6830 ho         1 0N2       0.484000
     45 H11          1.9660     2.7700     2.2320 h1         1 0N2       0.061700
     46 H12          2.6160     4.4910     0.5410 h1         1 0N2       0.044700
     47 H13          2.1930     3.3770    -0.7700 h1         1 0N2       0.044700
     48 H16         -3.1600    -0.1350    -1.4870 h2         1 0N2       0.046700
     49 H17         -1.0400     0.1910     0.7230 hc         1 0N2       0.072700
     50 H18         -2.4070     1.2740     0.4500 hc         1 0N2       0.072700
     51 H19         -4.0250    -0.5260     0.9230 h1         1 0N2       0.034700
     52 H20         -3.5620     0.5430     2.8050 hn         1 0N2       0.388000
     53 H21         -3.3320    -1.0030     3.2090 hn         1 0N2       0.388000
     54 H23         -1.5860    -2.2980     1.4570 h1         1 0N2       0.042700
     55 H24         -3.1150    -3.9170     1.8490 ho         1 0N2       0.485000
     56 H25         -2.1290    -3.5500    -0.5350 h1         1 0N2       0.035700
     57 H26         -3.8770    -2.7760    -2.2130 hc         1 0N2       0.039033
     58 H27         -4.5650    -3.4680    -0.7430 hc         1 0N2       0.039033
     59 H28         -4.5790    -1.7190    -0.9740 hc         1 0N2       0.039033
@<TRIPOS>BOND
     1     1     2 2   
     2     2     3 1   
     3     2     6 1   
     4     3     4 1   
     5     3     5 2   
     6     4    35 1   
     7     4    36 1   
     8     4    37 1   
     9     5     9 1   
    10     5    38 1   
    11     6     7 1   
    12     6    39 1   
    13     7     8 2   
    14     7     9 1   
    15     9    10 1   
    16    10    11 1   
    17    10    12 1   
    18    10    40 1   
    19    11    15 1   
    20    12    13 1   
    21    12    41 1   
    22    12    42 1   
    23    13    14 1   
    24    13    15 1   
    25    13    43 1   
    26    14    44 1   
    27    15    16 1   
    28    15    45 1   
    29    16    17 1   
    30    16    46 1   
    31    16    47 1   
    32    17    18 1   
    33    18    19 1   
    34    18    20 1   
    35    18    21 1   
    36    21    22 1   
    37    22    23 1   
    38    22    24 1   
    39    22    25 1   
    40    25    26 1   
    41    26    27 1   
    42    26    33 1   
    43    26    48 1   
    44    27    28 1   
    45    27    49 1   
    46    27    50 1   
    47    28    29 1   
    48    28    30 1   
    49    28    51 1   
    50    29    52 1   
    51    29    53 1   
    52    30    31 1   
    53    30    32 1   
    54    30    54 1   
    55    31    55 1   
    56    32    33 1   
    57    32    34 1   
    58    32    56 1   
    59    34    57 1   
    60    34    58 1   
    61    34    59 1   
@<TRIPOS>SUBSTRUCTURE
     1 0N2         1 TEMP              0 ****  ****    0 ROOT
