@<TRIPOS>MOLECULE
0N2
   59    61     1     0     0
SMALL
bcc


@<TRIPOS>ATOM
      1 O41          1.1230    -3.4430    -1.8360 o          1 0N2      -0.641500
      2 C41          1.4710    -2.6330    -0.9940 c          1 0N2       0.757700
      3 C51          1.1690    -2.7230     0.4190 cc         1 0N2      -0.264400
      4 C5A          0.3630    -3.8760     0.9150 c3         1 0N2      -0.010900
      5 C61          1.5850    -1.7220     1.2130 cd         1 0N2       0.052600
      6 N31          2.2440    -1.5460    -1.3400 ns         1 0N2      -0.570500
      7 C21          2.6670    -0.5210    -0.5380 c          1 0N2       0.853500
      8 O21          3.3440     0.3890    -0.9680 o          1 0N2      -0.630500
      9 N11          2.3120    -0.6420     0.7860 n          1 0N2      -0.391000
     10 C1X          2.5550     0.4520     1.7320 c5         1 0N2       0.334500
     11 O4X          1.6930     1.5160     1.4670 os         1 0N2      -0.366600
     12 C2X          3.9710     1.0250     1.7870 c5         1 0N2      -0.143400
     13 C3X          3.8770     2.4010     1.1230 c5         1 0N2       0.104100
     14 O3X          4.5980     3.4150     1.7840 oh         1 0N2      -0.597800
     15 C4X          2.3820     2.7280     1.2070 c5         1 0N2       0.137100
     16 C5X          1.8370     3.3690    -0.0490 c3         1 0N2       0.201400
     17 O5X          0.5190     3.8260     0.1910 os         1 0N2      -0.575200
     18 P           -0.6630     3.5730    -0.9150 p5         1 0N2       1.469800
     19 O1P         -1.8880     4.1810    -0.3110 o          1 0N2      -0.848000
     20 O2P         -0.1900     3.9660    -2.2810 o          1 0N2      -0.848000
     21 OPP         -0.7960     1.9440    -0.8220 os         1 0N2      -0.731800
     22 P2          -0.6870     0.8700    -2.0620 p5         1 0N2       1.473800
     23 O3P         -1.8830     1.0410    -2.9480 o          1 0N2      -0.841500
     24 O4P          0.6920     0.8190    -2.6280 o          1 0N2      -0.841500
     25 O1          -0.8530    -0.5000    -1.1620 os         1 0N2      -0.555200
     26 C1          -2.0740    -0.8180    -0.5820 c6         1 0N2       0.417900
     27 C2          -2.0010    -0.7570     0.9310 c6         1 0N2      -0.135400
     28 C3          -3.3070    -1.2390     1.5510 c6         1 0N2       0.166500
     29 N3          -3.1750    -1.2960     2.9990 n8         1 0N2      -0.897800
     30 C4          -3.6090    -2.6260     1.0050 c6         1 0N2       0.108100
     31 O4          -4.8500    -3.0550     1.5180 oh         1 0N2      -0.612800
     32 C5          -3.5950    -2.6430    -0.5340 c6         1 0N2       0.139100
     33 O5          -2.3650    -2.1280    -1.0110 os         1 0N2      -0.415600
     34 C6          -4.8040    -1.9710    -1.1780 c3         1 0N2      -0.114100
     35 H1          -0.6310    -3.8700     0.4660 hc         1 0N2       0.033033
     36 H2           0.8290    -4.8310     0.6670 hc         1 0N2       0.033033
     37 H3           0.2440    -3.8330     1.9970 hc         1 0N2       0.033033
     38 H4           1.3600    -1.7300     2.2710 h4         1 0N2       0.131000
     39 H5           2.4200    -1.4080    -2.3260 hn         1 0N2       0.358500
     40 H6           2.3020     0.0170     2.7000 h2         1 0N2       0.041700
     41 H7           4.2300     1.1650     2.8390 hc         1 0N2       0.047700
     42 H8           4.7220     0.3730     1.3480 hc         1 0N2       0.047700
     43 H9           4.1920     2.3330     0.0800 h1         1 0N2       0.083700
     44 H10          5.5260     3.3230     1.5500 ho         1 0N2       0.385000
     45 H11          2.2300     3.4090     2.0560 h1         1 0N2       0.061700
     46 H12          2.4750     4.2200    -0.3150 h1         1 0N2       0.044700
     47 H13          1.8840     2.6470    -0.8680 h1         1 0N2       0.044700
     48 H16         -2.8620    -0.1350    -0.9330 h2         1 0N2       0.046700
     49 H17         -1.1770    -1.3810     1.2860 hc         1 0N2       0.072700
     50 H18         -1.7880     0.2700     1.2380 hc         1 0N2       0.072700
     51 H19         -4.1140    -0.5560     1.2350 h1         1 0N2       0.034700
     52 H20         -2.9600    -0.3700     3.3480 hn         1 0N2       0.332800
     53 H21         -4.0670    -1.5410     3.4100 hn         1 0N2       0.332800
     54 H23         -2.8000    -3.2860     1.3520 h1         1 0N2       0.042700
     55 H24         -4.9600    -3.9890     1.3130 ho         1 0N2       0.386000
     56 H25         -3.5980    -3.6910    -0.8520 h1         1 0N2       0.035700
     57 H26         -4.7170    -2.0160    -2.2640 hc         1 0N2       0.039033
     58 H27         -5.7200    -2.4900    -0.9000 hc         1 0N2       0.039033
     59 H28         -4.9230    -0.9240    -0.8960 hc         1 0N2       0.039033
@<TRIPOS>BOND
     1     1     2 2   
     2     2     3 1   
     3     2     6 1   
     4     3     4 1   
     5     3     5 2   
     6     4    35 1   
     7     4    36 1   
     8     4    37 1   
     9     5     9 1   
    10     5    38 1   
    11     6     7 1   
    12     6    39 1   
    13     7     8 2   
    14     7     9 1   
    15     9    10 1   
    16    10    11 1   
    17    10    12 1   
    18    10    40 1   
    19    11    15 1   
    20    12    13 1   
    21    12    41 1   
    22    12    42 1   
    23    13    14 1   
    24    13    15 1   
    25    13    43 1   
    26    14    44 1   
    27    15    16 1   
    28    15    45 1   
    29    16    17 1   
    30    16    46 1   
    31    16    47 1   
    32    17    18 1   
    33    18    19 1   
    34    18    20 1   
    35    18    21 1   
    36    21    22 1   
    37    22    23 1   
    38    22    24 1   
    39    22    25 1   
    40    25    26 1   
    41    26    27 1   
    42    26    33 1   
    43    26    48 1   
    44    27    28 1   
    45    27    49 1   
    46    27    50 1   
    47    28    29 1   
    48    28    30 1   
    49    28    51 1   
    50    29    52 1   
    51    29    53 1   
    52    30    31 1   
    53    30    32 1   
    54    30    54 1   
    55    31    55 1   
    56    32    33 1   
    57    32    34 1   
    58    32    56 1   
    59    34    57 1   
    60    34    58 1   
    61    34    59 1   
@<TRIPOS>SUBSTRUCTURE
     1 0N2         1 TEMP              0 ****  ****    0 ROOT
