@<TRIPOS>MOLECULE
0N5
   47    50     1     0     0
SMALL
No Charge or Current Charge


@<TRIPOS>ATOM
      1 C1          -5.4150     3.4550     0.5680 c3         1 0N5       0.155900
      2 O1          -6.2780     2.3070     0.4540 os         1 0N5      -0.365100
      3 C2          -5.7920     1.0340     0.2030 ca         1 0N5       0.051100
      4 C3          -4.4140     0.7650     0.0390 ca         1 0N5      -0.135000
      5 C4          -3.9740    -0.5590    -0.2160 ca         1 0N5      -0.175000
      6 C5          -4.9180    -1.6140    -0.3010 ca         1 0N5       0.066000
      7 C6          -6.2850    -1.3310    -0.1360 ca         1 0N5      -0.132000
      8 C7          -6.7190    -0.0220     0.1120 ca         1 0N5       0.158100
      9 O2          -8.0500     0.2320     0.2700 oh         1 0N5      -0.524100
     10 N1          -4.5140    -2.8790    -0.5380 nb         1 0N5      -0.201000
     11 C8          -3.1920    -3.0880    -0.6910 ca         1 0N5       0.165900
     12 N2          -2.2220    -2.1590    -0.6340 nb         1 0N5      -0.276000
     13 C9          -2.6070    -0.8950    -0.3880 ca         1 0N5       0.407900
     14 N3          -1.6020     0.0750    -0.3700 nu         1 0N5      -0.929900
     15 C10         -0.2040     0.0350    -0.2810 ca         1 0N5       0.277000
     16 C11          0.5390     1.1090    -0.7970 ca         1 0N5      -0.114500
     17 C12          1.9440     1.1200    -0.7170 ca         1 0N5      -0.125000
     18 C13          2.6320     0.0480    -0.1070 ca         1 0N5      -0.041000
     19 C14          1.8840    -1.0170     0.4290 ca         1 0N5      -0.125000
     20 C15          0.4800    -1.0240     0.3460 ca         1 0N5      -0.114500
     21 N4           4.0490    -0.0150     0.0180 ns         1 0N5      -0.139000
     22 C16          5.0740     0.7890    -0.4720 c          1 0N5       0.620700
     23 O3           4.8780     1.7690    -1.1840 o          1 0N5      -0.583100
     24 C17          6.4830     0.3760    -0.0780 ca         1 0N5      -0.155600
     25 C18          6.7390    -0.7520     0.7430 ca         1 0N5      -0.071000
     26 C19          8.0580    -1.1020     1.0860 ca         1 0N5      -0.118500
     27 C20          9.1380    -0.3380     0.6190 ca         1 0N5      -0.086000
     28 C21          8.9000     0.7810    -0.1930 ca         1 0N5      -0.118500
     29 C22          7.5850     1.1360    -0.5390 ca         1 0N5      -0.071000
     30 H1          -4.7030     3.3280     1.3930 h1         1 0N5       0.045033
     31 H2          -4.8540     3.6160    -0.3610 h1         1 0N5       0.045033
     32 H3          -6.0070     4.3570     0.7670 h1         1 0N5       0.045033
     33 H4          -3.6930     1.5710     0.1170 ha         1 0N5       0.111000
     34 H5          -7.0150    -2.1330    -0.2000 ha         1 0N5       0.154000
     35 H6          -8.1280     1.1990     0.4330 ho         1 0N5       0.487000
     36 H7          -2.8790    -4.1120    -0.8860 h5         1 0N5       0.046100
     37 H8          -1.9700     1.0100    -0.5280 hn         1 0N5       0.495000
     38 H9           0.0280     1.9430    -1.2710 ha         1 0N5       0.129000
     39 H10          2.4730     1.9730    -1.1290 ha         1 0N5       0.130000
     40 H11          2.3910    -1.8470     0.9170 ha         1 0N5       0.130000
     41 H12         -0.0700    -1.8490     0.7880 ha         1 0N5       0.129000
     42 H13          4.3700    -0.7950     0.5730 hn         1 0N5       0.154000
     43 H14          5.9320    -1.3710     1.1270 ha         1 0N5       0.123500
     44 H15          8.2410    -1.9690     1.7160 ha         1 0N5       0.118500
     45 H16         10.1560    -0.6120     0.8870 ha         1 0N5       0.117000
     46 H17          9.7360     1.3750    -0.5560 ha         1 0N5       0.118500
     47 H18          7.4270     2.0080    -1.1710 ha         1 0N5       0.123500
@<TRIPOS>BOND
     1     1     2 1   
     2     1    30 1   
     3     1    31 1   
     4     1    32 1   
     5     2     3 1   
     6     3     4 ar  
     7     3     8 ar  
     8     4     5 ar  
     9     4    33 1   
    10     5     6 ar  
    11     5    13 ar  
    12     6     7 ar  
    13     6    10 ar  
    14     7     8 ar  
    15     7    34 1   
    16     8     9 1   
    17     9    35 1   
    18    10    11 ar  
    19    11    12 ar  
    20    11    36 1   
    21    12    13 ar  
    22    13    14 1   
    23    14    15 1   
    24    14    37 1   
    25    15    16 ar  
    26    15    20 ar  
    27    16    17 ar  
    28    16    38 1   
    29    17    18 ar  
    30    17    39 1   
    31    18    19 ar  
    32    18    21 1   
    33    19    20 ar  
    34    19    40 1   
    35    20    41 1   
    36    21    22 1   
    37    21    42 1   
    38    22    23 2   
    39    22    24 1   
    40    24    25 ar  
    41    24    29 ar  
    42    25    26 ar  
    43    25    43 1   
    44    26    27 ar  
    45    26    44 1   
    46    27    28 ar  
    47    27    45 1   
    48    28    29 ar  
    49    28    46 1   
    50    29    47 1   
@<TRIPOS>SUBSTRUCTURE
     1 0N5         1 TEMP              0 ****  ****    0 ROOT
