@<TRIPOS>MOLECULE
0N5
   47    50     1     0     0
SMALL
bcc


@<TRIPOS>ATOM
      1 C1          -5.4420     3.4660    -0.0170 c3         1 0N5       0.132700
      2 O1          -6.2790     2.3250    -0.0570 os         1 0N5      -0.341900
      3 C2          -5.7130     1.1070    -0.0590 ca         1 0N5       0.051100
      4 C3          -4.3700     0.8440    -0.0380 ca         1 0N5      -0.153000
      5 C4          -3.9040    -0.4890    -0.0380 ca         1 0N5      -0.305600
      6 C5          -4.8300    -1.5480    -0.0430 ca         1 0N5       0.459600
      7 C6          -6.2090    -1.2600    -0.0690 ca         1 0N5      -0.215300
      8 C7          -6.6520     0.0350    -0.0800 ca         1 0N5       0.158100
      9 O2          -7.9660     0.2910    -0.1020 oh         1 0N5      -0.485100
     10 N1          -4.4370    -2.8500    -0.0160 nb         1 0N5      -0.727000
     11 C8          -3.1520    -3.0570     0.0200 ca         1 0N5       0.691900
     12 N2          -2.1740    -2.1430     0.0170 nb         1 0N5      -0.802000
     13 C9          -2.5220    -0.8730    -0.0240 ca         1 0N5       0.736200
     14 N3          -1.5650     0.0840    -0.0600 nu         1 0N5      -0.736300
     15 C10         -0.1720    -0.0300    -0.0210 ca         1 0N5       0.138600
     16 C11          0.5610     1.0650    -0.4760 ca         1 0N5      -0.132500
     17 C12          1.9440     1.0890    -0.4450 ca         1 0N5      -0.143000
     18 C13          2.6460    -0.0110     0.0490 ca         1 0N5       0.051600
     19 C14          1.9130    -1.1070     0.5050 ca         1 0N5      -0.143000
     20 C15          0.5300    -1.1270     0.4780 ca         1 0N5      -0.132500
     21 N4           4.0400    -0.1080     0.1180 ns         1 0N5      -0.465100
     22 C16          4.9760     0.8190    -0.2010 c          1 0N5       0.687700
     23 O3           4.7130     1.9520    -0.5680 o          1 0N5      -0.583100
     24 C17          6.3930     0.3650    -0.0560 ca         1 0N5      -0.155600
     25 C18          6.7820    -0.9650    -0.2120 ca         1 0N5      -0.089000
     26 C19          8.1180    -1.3210    -0.0960 ca         1 0N5      -0.136500
     27 C20          9.0750    -0.3560     0.1820 ca         1 0N5      -0.104000
     28 C21          8.6940     0.9720     0.3320 ca         1 0N5      -0.136500
     29 C22          7.3620     1.3320     0.2030 ca         1 0N5      -0.089000
     30 H1          -4.8320     3.4820     0.8890 h1         1 0N5       0.045033
     31 H2          -4.7890     3.5150    -0.8910 h1         1 0N5       0.045033
     32 H3          -6.0980     4.3320    -0.0160 h1         1 0N5       0.045033
     33 H4          -3.6770     1.6730    -0.0110 ha         1 0N5       0.129000
     34 H5          -6.9170    -2.0790    -0.0760 ha         1 0N5       0.172000
     35 H6          -8.1240     1.2440    -0.1020 ho         1 0N5       0.448000
     36 H7          -2.8210    -4.0900     0.0510 h5         1 0N5       0.046100
     37 H8          -1.8820     1.0210    -0.2410 hn         1 0N5       0.439800
     38 H9           0.0410     1.9310    -0.8680 ha         1 0N5       0.147000
     39 H10          2.4550     1.9630    -0.8100 ha         1 0N5       0.148000
     40 H11          2.4330    -1.9720     0.8990 ha         1 0N5       0.148000
     41 H12          0.0110    -1.9970     0.8450 ha         1 0N5       0.147000
     42 H13          4.3760    -0.9720     0.5140 hn         1 0N5       0.320500
     43 H14          6.0600    -1.7350    -0.4540 ha         1 0N5       0.141500
     44 H15          8.4080    -2.3540    -0.2310 ha         1 0N5       0.136500
     45 H16         10.1160    -0.6350     0.2760 ha         1 0N5       0.135000
     46 H17          9.4370     1.7290     0.5470 ha         1 0N5       0.136500
     47 H18          7.0730     2.3690     0.3150 ha         1 0N5       0.141500
@<TRIPOS>BOND
     1     1     2 1   
     2     1    30 1   
     3     1    31 1   
     4     1    32 1   
     5     2     3 1   
     6     3     4 ar  
     7     3     8 ar  
     8     4     5 ar  
     9     4    33 1   
    10     5     6 ar  
    11     5    13 ar  
    12     6     7 ar  
    13     6    10 ar  
    14     7     8 ar  
    15     7    34 1   
    16     8     9 1   
    17     9    35 1   
    18    10    11 ar  
    19    11    12 ar  
    20    11    36 1   
    21    12    13 ar  
    22    13    14 1   
    23    14    15 1   
    24    14    37 1   
    25    15    16 ar  
    26    15    20 ar  
    27    16    17 ar  
    28    16    38 1   
    29    17    18 ar  
    30    17    39 1   
    31    18    19 ar  
    32    18    21 1   
    33    19    20 ar  
    34    19    40 1   
    35    20    41 1   
    36    21    22 1   
    37    21    42 1   
    38    22    23 2   
    39    22    24 1   
    40    24    25 ar  
    41    24    29 ar  
    42    25    26 ar  
    43    25    43 1   
    44    26    27 ar  
    45    26    44 1   
    46    27    28 ar  
    47    27    45 1   
    48    28    29 ar  
    49    28    46 1   
    50    29    47 1   
@<TRIPOS>SUBSTRUCTURE
     1 0N5         1 TEMP              0 ****  ****    0 ROOT
