@<TRIPOS>MOLECULE
0N6
   57    60     1     0     0
SMALL
bcc


@<TRIPOS>ATOM
      1 C9          -1.8370    -1.1640    -0.7290 ca         1 0N6      -0.016000
      2 C5          -2.8880    -1.0300     0.1690 ca         1 0N6      -0.091300
      3 C3          -4.2400    -0.5740    -0.3140 c6         1 0N6      -0.074100
      4 C2          -5.3270    -0.8130     0.7270 c6         1 0N6       0.150800
      5 N1          -4.9290    -0.4030     2.0620 n7         1 0N6      -0.789200
      6 C1          -3.7870    -1.1600     2.5250 c6         1 0N6       0.190100
      7 C4          -2.6700    -1.3180     1.5190 ca         1 0N6      -0.061300
      8 C6          -1.4250    -1.7780     1.9350 ca         1 0N6      -0.146000
      9 C7          -0.3820    -1.9370     1.0400 ca         1 0N6      -0.043000
     10 C8          -0.6010    -1.6120    -0.2920 ca         1 0N6      -0.271500
     11 S1           0.7260    -1.7070    -1.4520 sy         1 0N6       1.285200
     12 O1           1.7990    -2.4850    -0.8440 o          1 0N6      -0.609800
     13 O3           0.2240    -2.0970    -2.7600 o          1 0N6      -0.609800
     14 N2           1.1450    -0.1110    -1.5820 n7         1 0N6      -0.812100
     15 C10          1.9320     0.4430    -0.5000 c3         1 0N6       0.137500
     16 C12          3.4250     0.2140    -0.7280 c          1 0N6       0.651100
     17 O2           3.8710     0.2200    -1.8700 o          1 0N6      -0.607100
     18 N3           4.1980     0.0840     0.3520 n          1 0N6      -0.467800
     19 C13          5.6520    -0.0040     0.2350 c5         1 0N6       0.101000
     20 C14          6.1300     0.1570     1.6710 c5         1 0N6      -0.094400
     21 C15          5.0040    -0.4740     2.4820 c5         1 0N6      -0.094400
     22 C16          3.7480    -0.0330     1.7390 c5         1 0N6       0.101000
     23 C11          1.6450     1.9460    -0.3710 c3         1 0N6      -0.022100
     24 C17          0.2080     2.1760    -0.0030 ca         1 0N6      -0.075300
     25 C22         -0.7440     2.4360    -0.9780 ca         1 0N6      -0.066000
     26 C18         -0.2020     2.0740     1.3230 ca         1 0N6      -0.108000
     27 C19         -1.5340     2.2320     1.6800 ca         1 0N6      -0.129000
     28 C20         -2.4830     2.5030     0.7110 ca         1 0N6      -0.094000
     29 C21         -2.0800     2.6050    -0.6190 ca         1 0N6      -0.019000
     30 C23         -3.0490     2.8770    -1.6310 cg         1 0N6       0.229800
     31 N4          -3.8340     3.0940    -2.4470 n1         1 0N6      -0.358800
     32 H1          -1.9970    -0.9190    -1.7720 ha         1 0N6       0.154000
     33 H2          -4.1970     0.4930    -0.5550 hc         1 0N6       0.060200
     34 H3          -4.4920    -1.0810    -1.2490 hc         1 0N6       0.060200
     35 H4          -6.2380    -0.2840     0.4410 h1         1 0N6       0.060700
     36 H5          -5.5800    -1.8770     0.7640 h1         1 0N6       0.060700
     37 H6          -4.7060     0.5850     2.0600 hn         1 0N6       0.351800
     38 H8          -3.3970    -0.6930     3.4310 h1         1 0N6       0.064700
     39 H9          -4.1240    -2.1590     2.8220 h1         1 0N6       0.064700
     40 H10         -1.2630    -2.0110     2.9810 ha         1 0N6       0.133000
     41 H11          0.5770    -2.3030     1.3820 ha         1 0N6       0.152000
     42 H12          1.5000     0.1120    -2.5090 hn         1 0N6       0.452800
     43 H13          1.5990    -0.0250     0.4270 h1         1 0N6       0.070700
     44 H14          5.9410    -0.9770    -0.1750 h1         1 0N6       0.053450
     45 H15          6.0360     0.7670    -0.4320 h1         1 0N6       0.053450
     46 H16          7.0960    -0.3170     1.8390 hc         1 0N6       0.057450
     47 H17          6.2300     1.2160     1.9180 hc         1 0N6       0.057450
     48 H18          5.0880    -1.5620     2.4570 hc         1 0N6       0.057450
     49 H19          4.9900    -0.1640     3.5260 hc         1 0N6       0.057450
     50 H20          3.3860     0.9280     2.1170 h1         1 0N6       0.053450
     51 H21          2.9440    -0.7630     1.8440 h1         1 0N6       0.053450
     52 H22          2.3000     2.3670     0.3950 hc         1 0N6       0.065200
     53 H23          1.8950     2.4440    -1.3100 hc         1 0N6       0.065200
     54 H24         -0.4520     2.5170    -2.0160 ha         1 0N6       0.150000
     55 H25          0.5320     1.8750     2.0960 ha         1 0N6       0.129000
     56 H26         -1.8290     2.1520     2.7170 ha         1 0N6       0.137000
     57 H27         -3.5220     2.6480     0.9780 ha         1 0N6       0.140000
@<TRIPOS>BOND
     1     1     2 ar  
     2     1    10 ar  
     3     1    32 1   
     4     2     3 1   
     5     2     7 ar  
     6     3     4 1   
     7     3    33 1   
     8     3    34 1   
     9     4     5 1   
    10     4    35 1   
    11     4    36 1   
    12     5     6 1   
    13     5    37 1   
    14     6     7 1   
    15     6    38 1   
    16     6    39 1   
    17     7     8 ar  
    18     8     9 ar  
    19     8    40 1   
    20     9    10 ar  
    21     9    41 1   
    22    10    11 1   
    23    11    12 2   
    24    11    13 2   
    25    11    14 1   
    26    14    15 1   
    27    14    42 1   
    28    15    16 1   
    29    15    23 1   
    30    15    43 1   
    31    16    17 2   
    32    16    18 1   
    33    18    19 1   
    34    18    22 1   
    35    19    20 1   
    36    19    44 1   
    37    19    45 1   
    38    20    21 1   
    39    20    46 1   
    40    20    47 1   
    41    21    22 1   
    42    21    48 1   
    43    21    49 1   
    44    22    50 1   
    45    22    51 1   
    46    23    24 1   
    47    23    52 1   
    48    23    53 1   
    49    24    25 ar  
    50    24    26 ar  
    51    25    29 ar  
    52    25    54 1   
    53    26    27 ar  
    54    26    55 1   
    55    27    28 ar  
    56    27    56 1   
    57    28    29 ar  
    58    28    57 1   
    59    29    30 1   
    60    30    31 3   
@<TRIPOS>SUBSTRUCTURE
     1 0N6         1 TEMP              0 ****  ****    0 ROOT
