@<TRIPOS>MOLECULE
0N6
   57    60     1     0     0
SMALL
No Charge or Current Charge


@<TRIPOS>ATOM
      1 C9          -1.9120    -1.1580    -0.8190 ca         1 0N6       0.002000
      2 C5          -2.9130    -1.0420     0.1640 ca         1 0N6      -0.091300
      3 C3          -4.3060    -0.5330    -0.2270 c6         1 0N6      -0.074100
      4 C2          -5.3660    -0.7410     0.8790 c6         1 0N6       0.150800
      5 N1          -4.8160    -0.3720     2.2010 n7         1 0N6      -0.844400
      6 C1          -3.6980    -1.2640     2.5970 c6         1 0N6       0.190100
      7 C4          -2.6230    -1.3760     1.5060 ca         1 0N6      -0.061300
      8 C6          -1.3400    -1.8460     1.8430 ca         1 0N6      -0.128000
      9 C7          -0.3470    -1.9790     0.8580 ca         1 0N6      -0.025000
     10 C8          -0.6300    -1.6330    -0.4780 ca         1 0N6      -0.271500
     11 S1           0.6410    -1.7630    -1.7450 sy         1 0N6       1.143600
     12 O1           1.7820    -2.5460    -1.2660 o          1 0N6      -0.539000
     13 O3           0.0090    -2.0080    -3.0420 o          1 0N6      -0.539000
     14 N2           1.1570    -0.1820    -1.8170 n7         1 0N6      -0.867300
     15 C10          1.9260     0.3510    -0.6490 c3         1 0N6       0.137500
     16 C12          3.4700     0.0820    -0.7550 c          1 0N6       0.584100
     17 O2           3.9980    -0.1030    -1.8480 o          1 0N6      -0.607100
     18 N3           4.2530     0.0810     0.4210 n          1 0N6      -0.400800
     19 C13          5.7190    -0.0960     0.3940 c5         1 0N6       0.101000
     20 C14          6.1030     0.3120     1.8380 c5         1 0N6      -0.094400
     21 C15          4.9280    -0.2850     2.6490 c5         1 0N6      -0.094400
     22 C16          3.7020     0.1360     1.7960 c5         1 0N6       0.101000
     23 C11          1.6270     1.8590    -0.4840 c3         1 0N6      -0.022100
     24 C17          0.1850     2.1090    -0.0560 ca         1 0N6      -0.075300
     25 C22         -0.7850     2.4890    -1.0040 ca         1 0N6      -0.048000
     26 C18         -0.1930     1.9380     1.2910 ca         1 0N6      -0.090000
     27 C19         -1.5230     2.1560     1.6860 ca         1 0N6      -0.111000
     28 C20         -2.4850     2.5460     0.7390 ca         1 0N6      -0.076000
     29 C21         -2.1180     2.7090    -0.6110 ca         1 0N6      -0.019000
     30 C23         -3.1010     3.0970    -1.5850 cg         1 0N6       0.319000
     31 N4          -3.9060     3.4040    -2.3730 n1         1 0N6      -0.448000
     32 H1          -2.1340    -0.8770    -1.8470 ha         1 0N6       0.136000
     33 H2          -4.2420     0.5370    -0.4640 hc         1 0N6       0.060200
     34 H3          -4.6440    -1.0270    -1.1480 hc         1 0N6       0.060200
     35 H4          -6.2550    -0.1310     0.6550 h1         1 0N6       0.060700
     36 H5          -5.6840    -1.7950     0.8930 h1         1 0N6       0.060700
     37 H6          -4.4470     0.5830     2.1330 hn         1 0N6       0.407000
     38 H8          -3.2410    -0.8900     3.5260 h1         1 0N6       0.064700
     39 H9          -4.0880    -2.2710     2.8090 h1         1 0N6       0.064700
     40 H10         -1.1110    -2.1140     2.8720 ha         1 0N6       0.115000
     41 H11          0.6390    -2.3460     1.1400 ha         1 0N6       0.134000
     42 H12          1.7950    -0.2330    -2.6120 hn         1 0N6       0.508000
     43 H13          1.5790    -0.1320     0.2710 h1         1 0N6       0.070700
     44 H14          5.9790    -1.1430     0.1850 h1         1 0N6       0.053450
     45 H15          6.2050     0.5420    -0.3560 h1         1 0N6       0.053450
     46 H16          7.0780    -0.0870     2.1410 hc         1 0N6       0.057450
     47 H17          6.1460     1.4030     1.9430 hc         1 0N6       0.057450
     48 H18          5.0070    -1.3770     2.7110 hc         1 0N6       0.057450
     49 H19          4.8770     0.0990     3.6740 hc         1 0N6       0.057450
     50 H20          3.3760     1.1540     2.0450 h1         1 0N6       0.053450
     51 H21          2.8600    -0.5520     1.9470 h1         1 0N6       0.053450
     52 H22          2.3060     2.2860     0.2640 hc         1 0N6       0.065200
     53 H23          1.8540     2.3790    -1.4220 hc         1 0N6       0.065200
     54 H24         -0.5000     2.6060    -2.0480 ha         1 0N6       0.132000
     55 H25          0.5430     1.6350     2.0310 ha         1 0N6       0.111000
     56 H26         -1.8090     2.0220     2.7270 ha         1 0N6       0.119000
     57 H27         -3.5130     2.7170     1.0530 ha         1 0N6       0.122000
@<TRIPOS>BOND
     1     1     2 ar  
     2     1    10 ar  
     3     1    32 1   
     4     2     3 1   
     5     2     7 ar  
     6     3     4 1   
     7     3    33 1   
     8     3    34 1   
     9     4     5 1   
    10     4    35 1   
    11     4    36 1   
    12     5     6 1   
    13     5    37 1   
    14     6     7 1   
    15     6    38 1   
    16     6    39 1   
    17     7     8 ar  
    18     8     9 ar  
    19     8    40 1   
    20     9    10 ar  
    21     9    41 1   
    22    10    11 1   
    23    11    12 2   
    24    11    13 2   
    25    11    14 1   
    26    14    15 1   
    27    14    42 1   
    28    15    16 1   
    29    15    23 1   
    30    15    43 1   
    31    16    17 2   
    32    16    18 1   
    33    18    19 1   
    34    18    22 1   
    35    19    20 1   
    36    19    44 1   
    37    19    45 1   
    38    20    21 1   
    39    20    46 1   
    40    20    47 1   
    41    21    22 1   
    42    21    48 1   
    43    21    49 1   
    44    22    50 1   
    45    22    51 1   
    46    23    24 1   
    47    23    52 1   
    48    23    53 1   
    49    24    25 ar  
    50    24    26 ar  
    51    25    29 ar  
    52    25    54 1   
    53    26    27 ar  
    54    26    55 1   
    55    27    28 ar  
    56    27    56 1   
    57    28    29 ar  
    58    28    57 1   
    59    29    30 1   
    60    30    31 3   
@<TRIPOS>SUBSTRUCTURE
     1 0N6         1 TEMP              0 ****  ****    0 ROOT
