@<TRIPOS>MOLECULE
0N7
   20    21     1     0     0
SMALL
No Charge or Current Charge


@<TRIPOS>ATOM
      1 O13          0.6790    -2.3470    -0.7410 o          1 0N7      -0.533000
      2 C10          0.5610    -1.1700    -0.4200 c          1 0N7       0.580600
      3 N9           1.6830    -0.3560    -0.1490 n          1 0N7      -0.256900
      4 O12          2.9940    -0.9990    -0.0490 oh         1 0N7      -0.420100
      5 C8           1.5790     0.9940     0.2330 c          1 0N7       0.598000
      6 O11          2.3930     1.5230     0.9800 o          1 0N7      -0.479000
      7 C7           0.3390     1.7360    -0.2610 c6         1 0N7      -0.126100
      8 C2          -0.9030     0.8740    -0.0740 ca         1 0N7      -0.034300
      9 C3          -0.7950    -0.5250    -0.2300 ca         1 0N7      -0.152600
     10 C4          -1.9630    -1.3160    -0.1710 ca         1 0N7      -0.041000
     11 C5          -3.2150    -0.7180     0.0540 ca         1 0N7      -0.121000
     12 C6          -3.3130     0.6730     0.2160 ca         1 0N7      -0.070000
     13 C1          -2.1590     1.4700     0.1450 ca         1 0N7      -0.119000
     14 H1           3.0650    -1.3080     0.8840 ho         1 0N7       0.472000
     15 H2           0.2670     2.7240     0.2130 hc         1 0N7       0.096700
     16 H3           0.4560     1.8540    -1.3450 hc         1 0N7       0.096700
     17 H4          -1.9030    -2.3970    -0.2860 ha         1 0N7       0.141000
     18 H5          -4.1100    -1.3350     0.1040 ha         1 0N7       0.126000
     19 H6          -4.2840     1.1350     0.3860 ha         1 0N7       0.122000
     20 H7          -2.2430     2.5500     0.2450 ha         1 0N7       0.122000
@<TRIPOS>BOND
     1     1     2 2   
     2     2     3 1   
     3     2     9 1   
     4     3     4 1   
     5     3     5 1   
     6     4    14 1   
     7     5     6 2   
     8     5     7 1   
     9     7     8 1   
    10     7    15 1   
    11     7    16 1   
    12     8     9 ar  
    13     8    13 ar  
    14     9    10 ar  
    15    10    11 ar  
    16    10    17 1   
    17    11    12 ar  
    18    11    18 1   
    19    12    13 ar  
    20    12    19 1   
    21    13    20 1   
@<TRIPOS>SUBSTRUCTURE
     1 0N7         1 TEMP              0 ****  ****    0 ROOT
