@<TRIPOS>MOLECULE
0N7
   20    21     1     0     0
SMALL
abcg2


@<TRIPOS>ATOM
      1 O13          0.7560    -2.3340     0.0170 o          1 0N7      -0.533000
      2 C10          0.5520    -1.1360     0.0070 c          1 0N7       0.580600
      3 N9           1.6400    -0.2860     0.0150 n          1 0N7      -0.256900
      4 O12          2.8710    -0.8680     0.0380 oh         1 0N7      -0.420100
      5 C8           1.6490     1.0890     0.0110 c          1 0N7       0.598000
      6 O11          2.6890     1.7020     0.0350 o          1 0N7      -0.479000
      7 C7           0.3070     1.7570    -0.0320 c6         1 0N7      -0.126100
      8 C2          -0.8980     0.8750    -0.0280 ca         1 0N7      -0.034300
      9 C3          -0.7730    -0.5100    -0.0120 ca         1 0N7      -0.152600
     10 C4          -1.9030    -1.3290    -0.0100 ca         1 0N7      -0.041000
     11 C5          -3.1620    -0.7610    -0.0250 ca         1 0N7      -0.121000
     12 C6          -3.2930     0.6250    -0.0420 ca         1 0N7      -0.070000
     13 C1          -2.1710     1.4350    -0.0430 ca         1 0N7      -0.119000
     14 H1           2.6800    -1.8230     0.0450 ho         1 0N7       0.472000
     15 H2           0.2700     2.4470     0.8150 hc         1 0N7       0.096700
     16 H3           0.3020     2.3890    -0.9250 hc         1 0N7       0.096700
     17 H4          -1.7910    -2.4040     0.0030 ha         1 0N7       0.141000
     18 H5          -4.0400    -1.3930    -0.0240 ha         1 0N7       0.126000
     19 H6          -4.2780     1.0740    -0.0540 ha         1 0N7       0.122000
     20 H7          -2.2810     2.5120    -0.0560 ha         1 0N7       0.122000
@<TRIPOS>BOND
     1     1     2 2   
     2     2     3 1   
     3     2     9 1   
     4     3     4 1   
     5     3     5 1   
     6     4    14 1   
     7     5     6 2   
     8     5     7 1   
     9     7     8 1   
    10     7    15 1   
    11     7    16 1   
    12     8     9 ar  
    13     8    13 ar  
    14     9    10 ar  
    15    10    11 ar  
    16    10    17 1   
    17    11    12 ar  
    18    11    18 1   
    19    12    13 ar  
    20    12    19 1   
    21    13    20 1   
@<TRIPOS>SUBSTRUCTURE
     1 0N7         1 TEMP              0 ****  ****    0 ROOT
