@<TRIPOS>MOLECULE
0N8
   52    54     1     0     0
SMALL
No Charge or Current Charge


@<TRIPOS>ATOM
      1 Cl2         -4.2900     5.3780    -0.1520 cl         1 0N8      -0.235000
      2 C19         -3.4660     3.9570     0.4770 ca         1 0N8       0.115000
      3 C18         -2.1960     4.0840     1.0600 ca         1 0N8      -0.107500
      4 C17         -1.5370     2.9480     1.5630 ca         1 0N8      -0.091000
      5 C20         -4.0840     2.6990     0.4040 ca         1 0N8      -0.107500
      6 C21         -3.4250     1.5630     0.9070 ca         1 0N8      -0.091000
      7 C16         -2.1400     1.6760     1.4770 ca         1 0N8      -0.061300
      8 C15         -1.4350     0.4440     2.0490 c3         1 0N8      -0.019100
      9 C11         -0.3590    -0.2620     1.1380 c6         1 0N8      -0.139000
     10 C10          0.6810     0.7480     0.5490 c6         1 0N8      -0.057400
     11 C9           1.8530     0.0500    -0.1820 c6         1 0N8       0.165300
     12 C14         -1.1100    -0.9880    -0.0460 c          1 0N8       0.592300
     13 O27         -1.7680    -0.3220    -0.8360 o          1 0N8      -0.569100
     14 C22         -1.1300    -2.4910    -0.1290 ce         1 0N8      -0.465200
     15 C23         -1.6350    -3.2830    -1.1310 cf         1 0N8       0.091900
     16 O28         -2.1760    -2.7340    -2.2410 oh         1 0N8      -0.527100
     17 C24         -1.6130    -4.8180    -1.0790 c          1 0N8       0.675200
     18 O26         -2.0900    -5.4110    -2.0400 o          1 0N8      -0.689500
     19 O25         -1.1340    -5.3910    -0.1080 o          1 0N8      -0.689500
     20 C12          0.4930    -1.2100     2.0640 c6         1 0N8      -0.057400
     21 C13          1.7210    -1.8540     1.3530 c6         1 0N8       0.165300
     22 N8           2.6100    -0.8300     0.7480 n3         1 0N8      -0.727600
     23 C7           3.8140    -1.4330     0.1260 c3         1 0N8       0.212100
     24 C2           4.8410    -0.4040    -0.3430 ca         1 0N8      -0.072300
     25 C3           5.5350     0.3830     0.5980 ca         1 0N8      -0.099000
     26 C4           6.4810     1.3310     0.1710 ca         1 0N8      -0.119000
     27 C5           6.7380     1.4990    -1.2000 ca         1 0N8      -0.120000
     28 C6           6.0500     0.7190    -2.1440 ca         1 0N8      -0.119000
     29 C1           5.1040    -0.2300    -1.7170 ca         1 0N8      -0.099000
     30 H1          -1.7230     5.0610     1.1240 ha         1 0N8       0.121500
     31 H2          -0.5580     3.0590     2.0230 ha         1 0N8       0.125500
     32 H3          -5.0710     2.6040    -0.0420 ha         1 0N8       0.121500
     33 H4          -3.9120     0.5920     0.8470 ha         1 0N8       0.125500
     34 H5          -0.9650     0.7520     2.9910 hc         1 0N8       0.049700
     35 H6          -2.1870    -0.2970     2.3490 hc         1 0N8       0.049700
     36 H7           0.1900     1.4380    -0.1510 hc         1 0N8       0.046450
     37 H8           1.0930     1.3740     1.3520 hc         1 0N8       0.046450
     38 H9           1.4650    -0.5290    -1.0340 h1         1 0N8       0.037950
     39 H10          2.5100     0.8290    -0.5950 h1         1 0N8       0.037950
     40 H11         -0.7160    -3.0250     0.7160 ha         1 0N8       0.197000
     41 H14         -2.4550    -3.5030    -2.7930 ho         1 0N8       0.496000
     42 H16          0.8820    -0.6300     2.9130 hc         1 0N8       0.046450
     43 H17         -0.1340    -1.9850     2.5240 hc         1 0N8       0.046450
     44 H18          2.2800    -2.4420     2.0960 h1         1 0N8       0.037950
     45 H19          1.3920    -2.5610     0.5800 h1         1 0N8       0.037950
     46 H21          4.3110    -2.0930     0.8510 h1         1 0N8       0.036700
     47 H22          3.5200    -2.0640    -0.7240 h1         1 0N8       0.036700
     48 H23          5.3340     0.2590     1.6600 ha         1 0N8       0.119500
     49 H24          7.0120     1.9360     0.9020 ha         1 0N8       0.104500
     50 H25          7.4700     2.2340    -1.5310 ha         1 0N8       0.102000
     51 H26          6.2480     0.8490    -3.2050 ha         1 0N8       0.104500
     52 H27          4.5740    -0.8290    -2.4540 ha         1 0N8       0.119500
@<TRIPOS>BOND
     1     1     2 1   
     2     2     3 ar  
     3     2     5 ar  
     4     3     4 ar  
     5     3    30 1   
     6     4     7 ar  
     7     4    31 1   
     8     5     6 ar  
     9     5    32 1   
    10     6     7 ar  
    11     6    33 1   
    12     7     8 1   
    13     8     9 1   
    14     8    34 1   
    15     8    35 1   
    16     9    10 1   
    17     9    12 1   
    18     9    20 1   
    19    10    11 1   
    20    10    36 1   
    21    10    37 1   
    22    11    22 1   
    23    11    38 1   
    24    11    39 1   
    25    12    13 2   
    26    12    14 1   
    27    14    15 2   
    28    14    40 1   
    29    15    16 1   
    30    15    17 1   
    31    16    41 1   
    32    17    18 1   
    33    17    19 1   
    34    20    21 1   
    35    20    42 1   
    36    20    43 1   
    37    21    22 1   
    38    21    44 1   
    39    21    45 1   
    40    22    23 1   
    41    23    24 1   
    42    23    46 1   
    43    23    47 1   
    44    24    25 ar  
    45    24    29 ar  
    46    25    26 ar  
    47    25    48 1   
    48    26    27 ar  
    49    26    49 1   
    50    27    28 ar  
    51    27    50 1   
    52    28    29 ar  
    53    28    51 1   
    54    29    52 1   
@<TRIPOS>SUBSTRUCTURE
     1 0N8         1 TEMP              0 ****  ****    0 ROOT
