@<TRIPOS>MOLECULE
0N8
   52    54     1     0     0
SMALL
abcg2


@<TRIPOS>ATOM
      1 CL2         -4.7530     4.4500    -0.2840 cl         1 0N8      -0.235000
      2 C19         -3.6910     3.2440     0.3720 ca         1 0N8       0.115000
      3 C18         -2.4940     3.6300     0.9530 ca         1 0N8      -0.107500
      4 C17         -1.6560     2.6570     1.4780 ca         1 0N8      -0.091000
      5 C20         -4.0570     1.9080     0.3160 ca         1 0N8      -0.107500
      6 C21         -3.2040     0.9520     0.8460 ca         1 0N8      -0.091000
      7 C16         -1.9880     1.3050     1.4300 ca         1 0N8      -0.061300
      8 C15         -1.0590     0.2650     1.9890 c3         1 0N8      -0.019100
      9 C11         -0.0470    -0.3300     0.9750 c6         1 0N8      -0.139000
     10 C10          0.9040     0.7530     0.4600 c6         1 0N8      -0.057400
     11 C9           2.0850     0.1960    -0.3220 c6         1 0N8       0.165300
     12 C14         -0.8490    -0.9650    -0.1690 c          1 0N8       0.592300
     13 O27         -0.8610    -0.4540    -1.2770 o          1 0N8      -0.569100
     14 C22         -1.6260    -2.1510     0.1540 ce         1 0N8      -0.465200
     15 C23         -2.4260    -2.8170    -0.7060 cf         1 0N8       0.091900
     16 O28         -2.6130    -2.5020    -1.9730 oh         1 0N8      -0.527100
     17 C24         -3.2380    -4.0570    -0.2950 c          1 0N8       0.675200
     18 O26         -3.9090    -4.5130    -1.2480 o          1 0N8      -0.689500
     19 O25         -3.1610    -4.4640     0.8660 o          1 0N8      -0.689500
     20 C12          0.8130    -1.3650     1.7150 c6         1 0N8      -0.057400
     21 C13          1.9620    -1.8760     0.8640 c6         1 0N8       0.165300
     22 N8           2.8260    -0.7850     0.4520 n3         1 0N8      -0.727600
     23 C7           3.9830    -1.2710    -0.2670 c3         1 0N8       0.212100
     24 C2           5.0480    -0.2180    -0.4420 ca         1 0N8      -0.072300
     25 C3           5.3980     0.6220     0.6140 ca         1 0N8      -0.099000
     26 C4           6.4040     1.5650     0.4640 ca         1 0N8      -0.119000
     27 C5           7.0800     1.6830    -0.7460 ca         1 0N8      -0.120000
     28 C6           6.7370     0.8520    -1.8030 ca         1 0N8      -0.119000
     29 C1           5.7250    -0.0880    -1.6500 ca         1 0N8      -0.099000
     30 H1          -2.2170     4.6750     1.0040 ha         1 0N8       0.121500
     31 H2          -0.7260     2.9650     1.9390 ha         1 0N8       0.125500
     32 H3          -4.9970     1.6130    -0.1290 ha         1 0N8       0.121500
     33 H4          -3.5010    -0.0890     0.8060 ha         1 0N8       0.125500
     34 H5          -0.4760     0.7040     2.8030 hc         1 0N8       0.049700
     35 H6          -1.6400    -0.5500     2.4290 hc         1 0N8       0.049700
     36 H7           0.3800     1.4810    -0.1600 hc         1 0N8       0.046450
     37 H8           1.2920     1.2980     1.3260 hc         1 0N8       0.046450
     38 H9           1.7430    -0.2350    -1.2770 h1         1 0N8       0.037950
     39 H10          2.7520     1.0220    -0.5740 h1         1 0N8       0.037950
     40 H11         -1.5920    -2.5440     1.1590 ha         1 0N8       0.197000
     41 H14         -3.2490    -3.1950    -2.2720 ho         1 0N8       0.496000
     42 H16          1.2250    -0.8850     2.6090 hc         1 0N8       0.046450
     43 H17          0.2210    -2.2110     2.0670 hc         1 0N8       0.046450
     44 H18          2.5530    -2.5880     1.4460 h1         1 0N8       0.037950
     45 H19          1.5670    -2.4350    -0.0040 h1         1 0N8       0.037950
     46 H21          4.4060    -2.1040     0.3040 h1         1 0N8       0.036700
     47 H22          3.7160    -1.6830    -1.2550 h1         1 0N8       0.036700
     48 H23          4.8640     0.5410     1.5530 ha         1 0N8       0.119500
     49 H24          6.6630     2.2120     1.2930 ha         1 0N8       0.104500
     50 H25          7.8640     2.4190    -0.8610 ha         1 0N8       0.102000
     51 H26          7.2520     0.9390    -2.7520 ha         1 0N8       0.104500
     52 H27          5.4580    -0.7290    -2.4830 ha         1 0N8       0.119500
@<TRIPOS>BOND
     1     1     2 1   
     2     2     3 ar  
     3     2     5 ar  
     4     3     4 ar  
     5     3    30 1   
     6     4     7 ar  
     7     4    31 1   
     8     5     6 ar  
     9     5    32 1   
    10     6     7 ar  
    11     6    33 1   
    12     7     8 1   
    13     8     9 1   
    14     8    34 1   
    15     8    35 1   
    16     9    10 1   
    17     9    12 1   
    18     9    20 1   
    19    10    11 1   
    20    10    36 1   
    21    10    37 1   
    22    11    22 1   
    23    11    38 1   
    24    11    39 1   
    25    12    13 2   
    26    12    14 1   
    27    14    15 2   
    28    14    40 1   
    29    15    16 1   
    30    15    17 1   
    31    16    41 1   
    32    17    18 1   
    33    17    19 1   
    34    20    21 1   
    35    20    42 1   
    36    20    43 1   
    37    21    22 1   
    38    21    44 1   
    39    21    45 1   
    40    22    23 1   
    41    23    24 1   
    42    23    46 1   
    43    23    47 1   
    44    24    25 ar  
    45    24    29 ar  
    46    25    26 ar  
    47    25    48 1   
    48    26    27 ar  
    49    26    49 1   
    50    27    28 ar  
    51    27    50 1   
    52    28    29 ar  
    53    28    51 1   
    54    29    52 1   
@<TRIPOS>SUBSTRUCTURE
     1 0N8         1 TEMP              0 ****  ****    0 ROOT
