@<TRIPOS>MOLECULE
0N9
   24    25     1     0     0
SMALL
No Charge or Current Charge


@<TRIPOS>ATOM
      1 O16          1.9420    -2.9910    -0.0810 o          1 0N9      -0.694500
      2 C14          2.5280    -1.9120    -0.0600 c          1 0N9       0.733200
      3 O15          3.7530    -1.8720    -0.0640 o          1 0N9      -0.694500
      4 C3           1.6890    -0.6340    -0.0280 cc         1 0N9       0.058400
      5 C2           2.2790     0.6390    -0.0030 cd         1 0N9      -0.032100
      6 O13          3.6160     0.9100    -0.0030 oh         1 0N9      -0.482100
      7 N4           0.2840    -0.7270    -0.0240 nc         1 0N9      -0.550300
      8 C5          -0.4320     0.4000     0.0040 cd         1 0N9       0.377900
      9 N6           0.1320     1.6420     0.0280 ns         1 0N9      -0.378400
     10 C1           1.4620     1.8800     0.0280 c          1 0N9       0.495200
     11 O12          1.9250     3.0130     0.0510 o          1 0N9      -0.632000
     12 C7          -1.8890     0.3530     0.0090 cd         1 0N9       0.209700
     13 N11         -2.7580     1.4350     0.0360 nd         1 0N9      -0.684000
     14 C10         -3.9720     0.9010     0.0300 cc         1 0N9       0.377400
     15 N9          -3.9070    -0.4800    -0.0010 na         1 0N9      -0.174500
     16 C17         -5.0520    -1.4010    -0.0160 c3         1 0N9       0.061900
     17 C8          -2.5750    -0.8370    -0.0140 cc         1 0N9      -0.159000
     18 H3           3.6950     1.8920     0.0190 ho         1 0N9       0.455000
     19 H4          -4.9120     1.4400     0.0460 h5         1 0N9       0.045100
     20 H5          -5.0190    -2.0140    -0.9260 h1         1 0N9       0.049700
     21 H6          -5.0090    -2.0550     0.8630 h1         1 0N9       0.049700
     22 H7          -5.9910    -0.8330     0.0020 h1         1 0N9       0.049700
     23 H8          -2.2260    -1.8620    -0.0380 h4         1 0N9       0.186000
     24 H2          -0.4710     2.4530     0.0490 hn         1 0N9       0.332500
@<TRIPOS>BOND
     1     1     2 1   
     2     2     3 1   
     3     2     4 1   
     4     4     5 2   
     5     4     7 1   
     6     5     6 1   
     7     5    10 1   
     8     6    18 1   
     9     7     8 2   
    10     8     9 1   
    11     8    12 1   
    12     9    10 1   
    13     9    24 1   
    14    10    11 2   
    15    12    13 1   
    16    12    17 2   
    17    13    14 2   
    18    14    15 1   
    19    14    19 1   
    20    15    16 1   
    21    15    17 1   
    22    16    20 1   
    23    16    21 1   
    24    16    22 1   
    25    17    23 1   
@<TRIPOS>SUBSTRUCTURE
     1 0N9         1 TEMP              0 ****  ****    0 ROOT
