@<TRIPOS>MOLECULE
0N9
   24    25     1     0     0
SMALL
abcg2


@<TRIPOS>ATOM
      1 O16          2.0260    -2.8230     0.5050 o          1 0N9      -0.694500
      2 C14          2.5440    -1.8440    -0.0560 c          1 0N9       0.733200
      3 O15          3.6450    -1.7870    -0.6290 o          1 0N9      -0.694500
      4 C3           1.7180    -0.5600    -0.0330 cc         1 0N9       0.058400
      5 C2           2.2780     0.6860    -0.0090 cd         1 0N9      -0.032100
      6 O13          3.5970     0.9260    -0.0000 oh         1 0N9      -0.482100
      7 N4           0.3620    -0.7250    -0.0250 nc         1 0N9      -0.550300
      8 C5          -0.3980     0.3160     0.0070 cd         1 0N9       0.377900
      9 N6           0.0970     1.5820     0.0510 ns         1 0N9      -0.378400
     10 C1           1.4310     1.8610     0.0540 c          1 0N9       0.495200
     11 O12          1.8770     3.0050     0.1030 o          1 0N9      -0.632000
     12 C7          -1.8470     0.2040     0.0030 cd         1 0N9       0.209700
     13 N11         -2.6450     1.3100     0.0490 nd         1 0N9      -0.684000
     14 C10         -3.8670     0.8520     0.0340 cc         1 0N9       0.377400
     15 N9          -3.8980    -0.4980    -0.0210 na         1 0N9      -0.174500
     16 C17         -5.0830    -1.3300    -0.0490 c3         1 0N9       0.061900
     17 C8          -2.6120    -0.9330    -0.0410 cc         1 0N9      -0.159000
     18 H3           3.7160     1.8860     0.0690 ho         1 0N9       0.455000
     19 H4          -4.7680     1.4460     0.0610 h5         1 0N9       0.045100
     20 H5          -5.1000    -1.9320    -0.9550 h1         1 0N9       0.049700
     21 H6          -5.1070    -1.9850     0.8190 h1         1 0N9       0.049700
     22 H7          -5.9630    -0.6930    -0.0330 h1         1 0N9       0.049700
     23 H8          -2.3510    -1.9770    -0.0850 h4         1 0N9       0.186000
     24 H2          -0.5610     2.3530     0.0870 hn         1 0N9       0.332500
@<TRIPOS>BOND
     1     1     2 1   
     2     2     3 1   
     3     2     4 1   
     4     4     5 2   
     5     4     7 1   
     6     5     6 1   
     7     5    10 1   
     8     6    18 1   
     9     7     8 2   
    10     8     9 1   
    11     8    12 1   
    12     9    10 1   
    13     9    24 1   
    14    10    11 2   
    15    12    13 1   
    16    12    17 2   
    17    13    14 2   
    18    14    15 1   
    19    14    19 1   
    20    15    16 1   
    21    15    17 1   
    22    16    20 1   
    23    16    21 1   
    24    16    22 1   
    25    17    23 1   
@<TRIPOS>SUBSTRUCTURE
     1 0N9         1 TEMP              0 ****  ****    0 ROOT
