@<TRIPOS>MOLECULE
0NC
   17    16     1     0     0
SMALL
No Charge or Current Charge


@<TRIPOS>ATOM
      1 N            1.9510     0.7770    -0.6960 n8         1 0NC      -0.981200
      2 CA           1.0490    -0.3440    -0.2770 c3         1 0NC       0.082500
      3 C           -0.3700     0.0870     0.2570 c          1 0NC       0.604100
      4 O           -0.5230     0.8020     1.2420 o          1 0NC      -0.604100
      5 CB           1.7870    -1.2320     0.7470 c3         1 0NC      -0.128100
      6 HN           2.1190     1.3910     0.1120 hn         1 0NC       0.404500
      7 N1          -1.4440    -0.3820    -0.4710 ns         1 0NC      -0.504900
      8 C1          -2.8450    -0.0970    -0.1530 c3         1 0NC       0.096300
      9 HN1         -1.2360    -0.9560    -1.2800 hn         1 0NC       0.313500
     10 HNA          2.8830     0.4030    -0.9120 hn         1 0NC       0.404500
     11 HA           0.8740    -0.9620    -1.1690 h1         1 0NC       0.058700
     12 HB           1.9960    -0.6790     1.6710 hc         1 0NC       0.045033
     13 HBA          1.1740    -2.1040     1.0060 hc         1 0NC       0.045033
     14 HBB          2.7370    -1.5980     0.3390 hc         1 0NC       0.045033
     15 H1          -3.0800    -0.4720     0.8520 h1         1 0NC       0.040033
     16 H1A         -3.0200     0.9860    -0.1880 h1         1 0NC       0.040033
     17 H1B         -3.4950    -0.5930    -0.8850 h1         1 0NC       0.040033
@<TRIPOS>BOND
     1     1     2 1   
     2     1     6 1   
     3     1    10 1   
     4     2     3 1   
     5     2     5 1   
     6     2    11 1   
     7     3     4 2   
     8     3     7 1   
     9     5    12 1   
    10     5    13 1   
    11     5    14 1   
    12     7     8 1   
    13     7     9 1   
    14     8    15 1   
    15     8    16 1   
    16     8    17 1   
@<TRIPOS>SUBSTRUCTURE
     1 0NC         1 TEMP              0 ****  ****    0 ROOT
