@<TRIPOS>MOLECULE
0NC
   17    16     1     0     0
SMALL
abcg2


@<TRIPOS>ATOM
      1 N            1.8900     0.8510    -0.5840 n8         1 0NC      -0.981200
      2 CA           1.0680    -0.3220    -0.3360 c3         1 0NC       0.082500
      3 C           -0.3010     0.1520     0.1290 c          1 0NC       0.604100
      4 O           -0.4160     0.9910     1.0150 o          1 0NC      -0.604100
      5 CB           1.6390    -1.2880     0.7050 c3         1 0NC      -0.128100
      6 HN           2.0490     1.3360     0.2920 hn         1 0NC       0.404500
      7 N1          -1.3540    -0.4270    -0.4590 ns         1 0NC      -0.504900
      8 C1          -2.7160    -0.1230    -0.0880 c3         1 0NC       0.096300
      9 HN1         -1.1980    -1.0910    -1.1980 hn         1 0NC       0.313500
     10 HNA          2.8030     0.5520    -0.9050 hn         1 0NC       0.404500
     11 HA           0.9630    -0.8580    -1.2840 h1         1 0NC       0.058700
     12 HB           1.7660    -0.7860     1.6650 hc         1 0NC       0.045033
     13 HBA          0.9940    -2.1550     0.8560 hc         1 0NC       0.045033
     14 HBB          2.6150    -1.6520     0.3810 hc         1 0NC       0.045033
     15 H1          -2.8970    -0.3200     0.9680 h1         1 0NC       0.040033
     16 H1A         -2.9660     0.9200    -0.2890 h1         1 0NC       0.040033
     17 H1B         -3.3810    -0.7520    -0.6720 h1         1 0NC       0.040033
@<TRIPOS>BOND
     1     1     2 1   
     2     1     6 1   
     3     1    10 1   
     4     2     3 1   
     5     2     5 1   
     6     2    11 1   
     7     3     4 2   
     8     3     7 1   
     9     5    12 1   
    10     5    13 1   
    11     5    14 1   
    12     7     8 1   
    13     7     9 1   
    14     8    15 1   
    15     8    16 1   
    16     8    17 1   
@<TRIPOS>SUBSTRUCTURE
     1 0NC         1 TEMP              0 ****  ****    0 ROOT
