@<TRIPOS>MOLECULE
0NF
   68    72     1     0     0
SMALL
No Charge or Current Charge


@<TRIPOS>ATOM
      1 C4           6.7790     0.2300    -0.5030 ca         1 0NF      -0.208300
      2 C5           5.9680    -0.8890    -0.2720 ca         1 0NF       0.205100
      3 C6           5.6330    -1.7100    -1.3590 ca         1 0NF      -0.270000
      4 C8           8.5670     2.4130    -1.2280 c          1 0NF       0.576000
      5 C10          7.1860     1.2080     0.6060 c6         1 0NF      -0.005100
      6 C13          4.1090    -2.6100     2.2870 ca         1 0NF      -0.113000
      7 C15          1.7020    -2.6560     1.8730 ca         1 0NF      -0.067300
      8 C17          3.1490    -1.1870     0.5640 ca         1 0NF      -0.110000
      9 C20         -0.7020    -1.5190     0.6590 c6         1 0NF      -0.142700
     10 C21          0.6710    -1.1480     0.0490 c6         1 0NF      -0.028100
     11 C22         -1.8980    -1.1270    -0.2370 c          1 0NF       0.608100
     12 C26         -4.4300     0.2530    -1.4980 ca         1 0NF      -0.086000
     13 C28         -6.2210     1.8400    -1.0620 ca         1 0NF      -0.071000
     14 N33         -7.8700     2.8080     1.1830 n8         1 0NF      -0.995200
     15 C38         -6.2870     4.5430     0.5250 c3         1 0NF      -0.103100
     16 C39         -5.9330     3.1450     2.5990 c3         1 0NF      -0.103100
     17 C29         -5.7140     2.0960     0.2310 ca         1 0NF      -0.047300
     18 C30         -4.5460     1.4080     0.6380 ca         1 0NF      -0.144000
     19 C27         -5.5960     0.9180    -1.9290 ca         1 0NF      -0.173300
     20 C34         -6.1560     0.6640    -3.3350 c3         1 0NF       0.355300
     21 F37         -5.9760    -0.6170    -3.7330 f          1 0NF      -0.113000
     22 F35         -7.4840     0.9080    -3.4180 f          1 0NF      -0.113000
     23 F36         -5.5520     1.4510    -4.2530 f          1 0NF      -0.113000
     24 C25         -3.9020     0.4900    -0.2110 ca         1 0NF      -0.028000
     25 N24         -2.7300    -0.1450     0.2870 ns         1 0NF      -0.150000
     26 O23         -2.0710    -1.6690    -1.3230 o          1 0NF      -0.567100
     27 C19         -0.7590    -2.9780     1.1680 c6         1 0NF      -0.060400
     28 C18          0.3220    -3.2160     2.2460 c6         1 0NF      -0.035100
     29 C16          1.8620    -1.6780     0.8590 ca         1 0NF      -0.067300
     30 C14          2.8300    -3.1080     2.5860 ca         1 0NF      -0.100000
     31 C12          4.2720    -1.6600     1.2690 ca         1 0NF       0.090100
     32 O11          5.5340    -1.1810     1.0020 os         1 0NF      -0.248200
     33 C1           6.0960    -1.3750    -2.6390 ca         1 0NF       0.401900
     34 N2           6.8620    -0.2880    -2.8780 nb         1 0NF      -0.733000
     35 C3           7.1820     0.4760    -1.8210 ca         1 0NF       0.512900
     36 C9           8.4820     1.9840     0.2470 c6         1 0NF      -0.165400
     37 O31          9.1140     3.4500    -1.5730 o          1 0NF      -0.530000
     38 N7           7.9720     1.5740    -2.1310 ns         1 0NF      -0.323900
     39 H6           5.0240    -2.5990    -1.2230 ha         1 0NF       0.140000
     40 H10          6.3660     1.9230     0.7660 hc         1 0NF       0.063700
     41 H10A         7.3250     0.6810     1.5610 hc         1 0NF       0.063700
     42 H13          4.9740    -2.9640     2.8420 ha         1 0NF       0.132000
     43 H17          3.2730    -0.4360    -0.2110 ha         1 0NF       0.129000
     44 H20         -0.7990    -0.8920     1.5570 hc         1 0NF       0.063700
     45 H21          0.7390    -1.5560    -0.9690 hc         1 0NF       0.059700
     46 H21A         0.7450    -0.0560    -0.0550 hc         1 0NF       0.059700
     47 H26         -3.9430    -0.4380    -2.1790 ha         1 0NF       0.165000
     48 H28         -7.1130     2.3680    -1.3930 ha         1 0NF       0.151000
     49 HN33        -7.9740     1.8530     1.5400 hn         1 0NF       0.399500
     50 HN3A        -8.3100     3.3850     1.9070 hn         1 0NF       0.399500
     51 H38         -6.7870     5.2970     1.1460 hc         1 0NF       0.041200
     52 H38A        -5.2270     4.8160     0.4500 hc         1 0NF       0.041200
     53 H38B        -6.7190     4.5950    -0.4810 hc         1 0NF       0.041200
     54 H39         -6.0020     2.1480     3.0520 hc         1 0NF       0.041200
     55 H39A        -4.8890     3.4770     2.6510 hc         1 0NF       0.041200
     56 H39B        -6.5250     3.8360     3.2120 hc         1 0NF       0.041200
     57 H30         -4.1160     1.5810     1.6200 ha         1 0NF       0.110000
     58 HN24        -2.4480     0.1860     1.2010 hn         1 0NF       0.150000
     59 H19         -1.7520    -3.2060     1.5800 hc         1 0NF       0.063700
     60 H19A        -0.6010    -3.6680     0.3270 hc         1 0NF       0.063700
     61 H18          0.3970    -4.2930     2.4500 hc         1 0NF       0.055700
     62 H18A        -0.0010    -2.7520     3.1880 hc         1 0NF       0.055700
     63 H14          2.7140    -3.8470     3.3760 ha         1 0NF       0.119000
     64 H1           5.8460    -1.9930    -3.5000 h4         1 0NF       0.024100
     65 H9           9.3030     1.2670     0.3800 hc         1 0NF       0.077200
     66 H9A          8.6800     2.8350     0.9110 hc         1 0NF       0.077200
     67 HN7          8.0490     1.8080    -3.1100 hn         1 0NF       0.174000
     68 C32         -6.4370     3.1290     1.1330 c3         1 0NF       0.220500
@<TRIPOS>BOND
     1     1     2 ar  
     2     1     5 1   
     3     1    35 ar  
     4     2     3 ar  
     5     2    32 1   
     6     3    33 ar  
     7     3    39 1   
     8     4    36 1   
     9     4    37 2   
    10     4    38 1   
    11     5    36 1   
    12     5    40 1   
    13     5    41 1   
    14     6    30 ar  
    15     6    31 ar  
    16     6    42 1   
    17     7    28 1   
    18     7    29 ar  
    19     7    30 ar  
    20     8    29 ar  
    21     8    31 ar  
    22     8    43 1   
    23     9    10 1   
    24     9    11 1   
    25     9    27 1   
    26     9    44 1   
    27    10    29 1   
    28    10    45 1   
    29    10    46 1   
    30    11    25 1   
    31    11    26 2   
    32    12    19 ar  
    33    12    24 ar  
    34    12    47 1   
    35    13    17 ar  
    36    13    19 ar  
    37    13    48 1   
    38    14    49 1   
    39    14    50 1   
    40    14    68 1   
    41    15    51 1   
    42    15    52 1   
    43    15    53 1   
    44    15    68 1   
    45    16    54 1   
    46    16    55 1   
    47    16    56 1   
    48    16    68 1   
    49    17    18 ar  
    50    17    68 1   
    51    18    24 ar  
    52    18    57 1   
    53    19    20 1   
    54    20    21 1   
    55    20    22 1   
    56    20    23 1   
    57    24    25 1   
    58    25    58 1   
    59    27    28 1   
    60    27    59 1   
    61    27    60 1   
    62    28    61 1   
    63    28    62 1   
    64    30    63 1   
    65    31    32 1   
    66    33    34 ar  
    67    33    64 1   
    68    34    35 ar  
    69    35    38 1   
    70    36    65 1   
    71    36    66 1   
    72    38    67 1   
@<TRIPOS>SUBSTRUCTURE
     1 0NF         1 TEMP              0 ****  ****    0 ROOT
