@<TRIPOS>MOLECULE
0NF
   68    72     1     0     0
SMALL
abcg2


@<TRIPOS>ATOM
      1 C4           6.6120     0.7780    -0.3120 ca         1 0NF      -0.208300
      2 C5           5.5670    -0.1380    -0.3300 ca         1 0NF       0.205100
      3 C6           5.4460    -1.0310    -1.3950 ca         1 0NF      -0.270000
      4 C8           9.0090     2.3700    -0.3850 c          1 0NF       0.576000
      5 C10          6.8170     1.8150     0.7500 c6         1 0NF      -0.005100
      6 C13          3.9780    -2.2570     1.3860 ca         1 0NF      -0.113000
      7 C15          1.6350    -2.8480     1.1520 ca         1 0NF      -0.067300
      8 C17          2.4270    -0.6970     0.4050 ca         1 0NF      -0.110000
      9 C20         -1.0970    -2.0770     0.7250 c6         1 0NF      -0.142700
     10 C21          0.0050    -1.2160     0.0980 c6         1 0NF      -0.028100
     11 C22         -2.4250    -1.7520     0.0640 c          1 0NF       0.608100
     12 C26         -5.0290    -0.4710    -0.8570 ca         1 0NF      -0.086000
     13 C28         -6.3640     1.5490    -0.6970 ca         1 0NF      -0.071000
     14 N33         -7.0080     3.9660     0.4250 n8         1 0NF      -0.995200
     15 C38         -4.6540     4.4240     0.1520 c3         1 0NF      -0.103100
     16 C39         -5.4950     3.4820     2.3210 c3         1 0NF      -0.103100
     17 C29         -5.4770     2.0880     0.2260 ca         1 0NF      -0.047300
     18 C30         -4.3650     1.3370     0.5890 ca         1 0NF      -0.144000
     19 C27         -6.1330     0.2820    -1.2190 ca         1 0NF      -0.173300
     20 C34         -7.1220    -0.2540    -2.2080 c3         1 0NF       0.355300
     21 F37         -6.8200    -1.4830    -2.6370 f          1 0NF      -0.113000
     22 F35         -8.3580    -0.3140    -1.6900 f          1 0NF      -0.113000
     23 F36         -7.2070     0.5280    -3.2960 f          1 0NF      -0.113000
     24 C25         -4.1260     0.0710     0.0600 ca         1 0NF      -0.028000
     25 N24         -2.9750    -0.5860     0.4990 ns         1 0NF      -0.150000
     26 O23         -2.9250    -2.4590    -0.7900 o          1 0NF      -0.567100
     27 C19         -0.7290    -3.5470     0.5860 c6         1 0NF      -0.060400
     28 C18          0.5270    -3.8410     1.3930 c6         1 0NF      -0.035100
     29 C16          1.3820    -1.6050     0.5710 ca         1 0NF      -0.067300
     30 C14          2.9370    -3.1550     1.5480 ca         1 0NF      -0.100000
     31 C12          3.7040    -1.0240     0.8140 ca         1 0NF       0.090100
     32 O11          4.7050    -0.0820     0.7040 os         1 0NF      -0.248200
     33 C1           6.3800    -0.9460    -2.4090 ca         1 0NF       0.401900
     34 N2           7.3890    -0.0830    -2.4240 nb         1 0NF      -0.733000
     35 C3           7.4870     0.7440    -1.3950 ca         1 0NF       0.512900
     36 C9           8.3010     2.1130     0.9200 c6         1 0NF      -0.165400
     37 O31          9.9570     3.1210    -0.5030 o          1 0NF      -0.530000
     38 N7           8.5380     1.6490    -1.4420 ns         1 0NF      -0.323900
     39 H6           4.6510    -1.7610    -1.4500 ha         1 0NF       0.140000
     40 H10          6.2840     2.7300     0.4730 hc         1 0NF       0.063700
     41 H10A         6.4050     1.4920     1.7040 hc         1 0NF       0.063700
     42 H13          4.9810    -2.5090     1.7050 ha         1 0NF       0.132000
     43 H17          2.2330     0.2750    -0.0330 ha         1 0NF       0.129000
     44 H20         -1.1690    -1.8290     1.7910 hc         1 0NF       0.063700
     45 H21         -0.0380    -1.3210    -0.9920 hc         1 0NF       0.059700
     46 H21A        -0.1590    -0.1570     0.3080 hc         1 0NF       0.059700
     47 H26         -4.8650    -1.4520    -1.2670 ha         1 0NF       0.165000
     48 H28         -7.2220     2.1290    -1.0060 ha         1 0NF       0.151000
     49 HN33        -7.7150     3.4620     0.9520 hn         1 0NF       0.399500
     50 HN3A        -7.0990     4.9350     0.7080 hn         1 0NF       0.399500
     51 H38         -4.7970     5.4480     0.5050 hc         1 0NF       0.041200
     52 H38A        -3.6360     4.1280     0.4040 hc         1 0NF       0.041200
     53 H38B        -4.7540     4.4210    -0.9330 hc         1 0NF       0.041200
     54 H39         -6.1990     2.7960     2.7960 hc         1 0NF       0.041200
     55 H39A        -4.4880     3.1980     2.6280 hc         1 0NF       0.041200
     56 H39B        -5.6820     4.4820     2.7160 hc         1 0NF       0.041200
     57 H30         -3.6520     1.7430     1.2970 ha         1 0NF       0.110000
     58 HN24        -2.4580    -0.0950     1.2130 hn         1 0NF       0.150000
     59 H19         -1.5410    -4.1880     0.9310 hc         1 0NF       0.063700
     60 H19A        -0.5600    -3.7860    -0.4680 hc         1 0NF       0.063700
     61 H18          0.8850    -4.8490     1.1720 hc         1 0NF       0.055700
     62 H18A         0.2800    -3.8370     2.4600 hc         1 0NF       0.055700
     63 H14          3.1400    -4.1190     1.9990 ha         1 0NF       0.119000
     64 H1           6.3070    -1.6150    -3.2580 h4         1 0NF       0.024100
     65 H9           8.8010     1.2570     1.3870 hc         1 0NF       0.077200
     66 H9A          8.4570     2.9680     1.5770 hc         1 0NF       0.077200
     67 HN7          9.0540     1.6960    -2.3110 hn         1 0NF       0.174000
     68 C32         -5.6810     3.4880     0.7970 c3         1 0NF       0.220500
@<TRIPOS>BOND
     1     1     2 ar  
     2     1     5 1   
     3     1    35 ar  
     4     2     3 ar  
     5     2    32 1   
     6     3    33 ar  
     7     3    39 1   
     8     4    36 1   
     9     4    37 2   
    10     4    38 1   
    11     5    36 1   
    12     5    40 1   
    13     5    41 1   
    14     6    30 ar  
    15     6    31 ar  
    16     6    42 1   
    17     7    28 1   
    18     7    29 ar  
    19     7    30 ar  
    20     8    29 ar  
    21     8    31 ar  
    22     8    43 1   
    23     9    10 1   
    24     9    11 1   
    25     9    27 1   
    26     9    44 1   
    27    10    29 1   
    28    10    45 1   
    29    10    46 1   
    30    11    25 1   
    31    11    26 2   
    32    12    19 ar  
    33    12    24 ar  
    34    12    47 1   
    35    13    17 ar  
    36    13    19 ar  
    37    13    48 1   
    38    14    49 1   
    39    14    50 1   
    40    14    68 1   
    41    15    51 1   
    42    15    52 1   
    43    15    53 1   
    44    15    68 1   
    45    16    54 1   
    46    16    55 1   
    47    16    56 1   
    48    16    68 1   
    49    17    18 ar  
    50    17    68 1   
    51    18    24 ar  
    52    18    57 1   
    53    19    20 1   
    54    20    21 1   
    55    20    22 1   
    56    20    23 1   
    57    24    25 1   
    58    25    58 1   
    59    27    28 1   
    60    27    59 1   
    61    27    60 1   
    62    28    61 1   
    63    28    62 1   
    64    30    63 1   
    65    31    32 1   
    66    33    34 ar  
    67    33    64 1   
    68    34    35 ar  
    69    35    38 1   
    70    36    65 1   
    71    36    66 1   
    72    38    67 1   
@<TRIPOS>SUBSTRUCTURE
     1 0NF         1 TEMP              0 ****  ****    0 ROOT
