@<TRIPOS>MOLECULE
0NH
   42    45     1     0     0
SMALL
No Charge or Current Charge


@<TRIPOS>ATOM
      1 C1          12.1150   -58.5500     2.4760 c3         1 0NH      -0.107100
      2 C2          10.6770   -58.0700     2.8790 c6         1 0NH       0.122000
      3 C3          10.5070   -58.3270     4.4090 c6         1 0NH      -0.097400
      4 C4          11.2990   -57.3280     5.2850 c6         1 0NH       0.223800
      5 N5          11.0010   -55.9230     4.9140 n3         1 0NH      -0.799500
      6 C6          11.3610   -55.6480     3.5010 c6         1 0NH       0.223800
      7 C7          10.5710   -56.5530     2.5270 c6         1 0NH      -0.097400
      8 S8          11.6060   -54.7710     6.0390 s6         1 0NH       1.243100
      9 O9          13.0380   -54.6100     5.7710 o          1 0NH      -0.549000
     10 O10         11.1390   -55.1950     7.3630 o          1 0NH      -0.549000
     11 C11         10.7310   -53.2700     5.6360 c3         1 0NH      -0.355100
     12 N12          9.6230   -58.8310     2.1260 na         1 0NH      -0.185600
     13 C13          9.8500   -59.8440     1.1790 cc         1 0NH       0.402700
     14 N14          8.6970   -60.3270     0.6800 nd         1 0NH      -0.552100
     15 C15          7.7110   -59.5910     1.3390 ca         1 0NH      -0.022600
     16 C16          8.2440   -58.6800     2.2180 ca         1 0NH      -0.006200
     17 C17          7.3400   -57.8680     2.9510 ca         1 0NH      -0.129800
     18 C18          7.4990   -56.8280     3.9400 cc         1 0NH      -0.239200
     19 C19          6.2340   -56.3990     4.2980 cd         1 0NH      -0.167100
     20 N20          5.2860   -57.1420     3.5600 na         1 0NH      -0.314400
     21 C22          5.9740   -58.0260     2.7520 ca         1 0NH       0.361500
     22 N23          5.4390   -58.9170     1.8900 nb         1 0NH      -0.692000
     23 C24          6.3060   -59.6960     1.1870 ca         1 0NH       0.425900
     24 H1          12.3050   -58.4020     1.4060 hc         1 0NH       0.051367
     25 H1A         12.9040   -58.0110     3.0120 hc         1 0NH       0.051367
     26 H1B         12.2600   -59.6160     2.6920 hc         1 0NH       0.051367
     27 H3           9.4580   -58.3060     4.7120 hc         1 0NH       0.069200
     28 H3A         10.8340   -59.3470     4.6520 hc         1 0NH       0.069200
     29 H4          11.0280   -57.5230     6.3330 h1         1 0NH       0.059200
     30 H4A         12.3770   -57.5290     5.1970 h1         1 0NH       0.059200
     31 H6          11.1400   -54.6050     3.2320 h1         1 0NH       0.059200
     32 H6A         12.4400   -55.7890     3.3430 h1         1 0NH       0.059200
     33 H7          10.9400   -56.3830     1.5070 hc         1 0NH       0.069200
     34 H7A          9.5340   -56.2140     2.4940 hc         1 0NH       0.069200
     35 H11         10.9840   -52.5310     6.4030 h1         1 0NH       0.103367
     36 H11A        11.0600   -52.9370     4.6480 h1         1 0NH       0.103367
     37 H11B         9.6620   -53.5040     5.6460 h1         1 0NH       0.103367
     38 H13         10.8390   -60.1810     0.8980 h5         1 0NH       0.063800
     39 H18          8.4120   -56.4190     4.3610 ha         1 0NH       0.204000
     40 H19          5.9420   -55.6310     5.0130 h4         1 0NH       0.216000
     41 HN20         4.2780   -57.0580     3.6020 hn         1 0NH       0.363000
     42 H24          5.8700   -60.4140     0.4940 h4         1 0NH       0.037100
@<TRIPOS>BOND
     1     1     2 1   
     2     1    24 1   
     3     1    25 1   
     4     1    26 1   
     5     2     3 1   
     6     2     7 1   
     7     2    12 1   
     8     3     4 1   
     9     3    27 1   
    10     3    28 1   
    11     4     5 1   
    12     4    29 1   
    13     4    30 1   
    14     5     6 1   
    15     5     8 1   
    16     6     7 1   
    17     6    31 1   
    18     6    32 1   
    19     7    33 1   
    20     7    34 1   
    21     8     9 2   
    22     8    10 2   
    23     8    11 1   
    24    11    35 1   
    25    11    36 1   
    26    11    37 1   
    27    12    13 1   
    28    12    16 1   
    29    13    14 2   
    30    13    38 1   
    31    14    15 1   
    32    15    16 ar  
    33    15    23 ar  
    34    16    17 ar  
    35    17    18 1   
    36    17    21 ar  
    37    18    19 2   
    38    18    39 1   
    39    19    20 1   
    40    19    40 1   
    41    20    21 1   
    42    20    41 1   
    43    21    22 ar  
    44    22    23 ar  
    45    23    42 1   
@<TRIPOS>SUBSTRUCTURE
     1 0NH         1 TEMP              0 ****  ****    0 ROOT
