@<TRIPOS>MOLECULE
0NH
   42    45     1     0     0
SMALL
abcg2


@<TRIPOS>ATOM
      1 C1          12.1270   -58.7450     2.4440 c3         1 0NH      -0.107100
      2 C2          10.8020   -58.1240     2.8850 c6         1 0NH       0.122000
      3 C3          10.6200   -58.3120     4.4040 c6         1 0NH      -0.097400
      4 C4          11.4940   -57.3790     5.2340 c6         1 0NH       0.223800
      5 N5          11.2740   -55.9940     4.7950 n3         1 0NH      -0.799500
      6 C6          11.6340   -55.7590     3.3890 c6         1 0NH       0.223800
      7 C7          10.7680   -56.6330     2.4900 c6         1 0NH      -0.097400
      8 S8          11.4320   -54.7480     5.8490 s6         1 0NH       1.243100
      9 O9          12.5220   -53.8800     5.4470 o          1 0NH      -0.549000
     10 O10         11.4590   -55.3020     7.1850 o          1 0NH      -0.549000
     11 C11          9.9300   -53.8270     5.6490 c3         1 0NH      -0.355100
     12 N12          9.6760   -58.8060     2.1980 na         1 0NH      -0.185600
     13 C13          9.7740   -59.8440     1.2980 cc         1 0NH       0.402700
     14 N14          8.6210   -60.2560     0.8390 nd         1 0NH      -0.552100
     15 C15          7.6800   -59.4510     1.4630 ca         1 0NH      -0.022600
     16 C16          8.3230   -58.5330     2.3220 ca         1 0NH      -0.006200
     17 C17          7.5320   -57.6250     3.0510 ca         1 0NH      -0.129800
     18 C18          7.6810   -56.5590     3.9950 cc         1 0NH      -0.239200
     19 C19          6.4210   -56.0990     4.2840 cd         1 0NH      -0.167100
     20 N20          5.4940   -56.8190     3.5760 na         1 0NH      -0.314400
     21 C22          6.1340   -57.7600     2.8080 ca         1 0NH       0.361500
     22 N23          5.5090   -58.6220     1.9960 nb         1 0NH      -0.692000
     23 C24          6.2850   -59.4650     1.3270 ca         1 0NH       0.425900
     24 H1          12.2830   -58.6270     1.3710 hc         1 0NH       0.051367
     25 H1A         12.9450   -58.2420     2.9540 hc         1 0NH       0.051367
     26 H1B         12.1770   -59.8020     2.7020 hc         1 0NH       0.051367
     27 H3           9.5810   -58.1450     4.6800 hc         1 0NH       0.069200
     28 H3A         10.8580   -59.3460     4.6610 hc         1 0NH       0.069200
     29 H4          11.2260   -57.4630     6.2830 h1         1 0NH       0.059200
     30 H4A         12.5530   -57.6350     5.1350 h1         1 0NH       0.059200
     31 H6          11.4680   -54.7130     3.1410 h1         1 0NH       0.059200
     32 H6A         12.6990   -55.9640     3.2430 h1         1 0NH       0.059200
     33 H7          11.1100   -56.5340     1.4580 hc         1 0NH       0.069200
     34 H7A          9.7470   -56.2620     2.5280 hc         1 0NH       0.069200
     35 H11         10.0230   -52.9350     6.2680 h1         1 0NH       0.103367
     36 H11A         9.8210   -53.5510     4.6020 h1         1 0NH       0.103367
     37 H11B         9.0990   -54.4450     5.9790 h1         1 0NH       0.103367
     38 H13         10.7260   -60.2590     1.0160 h5         1 0NH       0.063800
     39 H18          8.5910   -56.1750     4.4170 ha         1 0NH       0.204000
     40 H19          6.1140   -55.3090     4.9490 h4         1 0NH       0.216000
     41 HN20         4.4980   -56.6710     3.5890 hn         1 0NH       0.363000
     42 H24          5.8060   -60.1750     0.6620 h4         1 0NH       0.037100
@<TRIPOS>BOND
     1     1     2 1   
     2     1    24 1   
     3     1    25 1   
     4     1    26 1   
     5     2     3 1   
     6     2     7 1   
     7     2    12 1   
     8     3     4 1   
     9     3    27 1   
    10     3    28 1   
    11     4     5 1   
    12     4    29 1   
    13     4    30 1   
    14     5     6 1   
    15     5     8 1   
    16     6     7 1   
    17     6    31 1   
    18     6    32 1   
    19     7    33 1   
    20     7    34 1   
    21     8     9 2   
    22     8    10 2   
    23     8    11 1   
    24    11    35 1   
    25    11    36 1   
    26    11    37 1   
    27    12    13 1   
    28    12    16 1   
    29    13    14 2   
    30    13    38 1   
    31    14    15 1   
    32    15    16 ar  
    33    15    23 ar  
    34    16    17 ar  
    35    17    18 1   
    36    17    21 ar  
    37    18    19 2   
    38    18    39 1   
    39    19    20 1   
    40    19    40 1   
    41    20    21 1   
    42    20    41 1   
    43    21    22 ar  
    44    22    23 ar  
    45    23    42 1   
@<TRIPOS>SUBSTRUCTURE
     1 0NH         1 TEMP              0 ****  ****    0 ROOT
