@<TRIPOS>MOLECULE
0NI
   60    61     1     0     0
SMALL
No Charge or Current Charge


@<TRIPOS>ATOM
      1 N           86.6700   116.6360    97.9560 na         1 0NI      -0.794000
      2 C           88.5720   117.9110    98.9340 c3         1 0NI      -0.070900
      3 O           84.8390   115.8260   101.4740 o          1 0NI      -0.571100
      4 C1          87.2870   117.1420    99.1040 cc         1 0NI       0.163800
      5 C10         87.2060   117.3960   101.6380 c3         1 0NI       0.026000
      6 C11         87.3770   118.9070   101.6650 c2         1 0NI      -0.227200
      7 C12         86.4150   119.8450   101.5780 c2         1 0NI      -0.098400
      8 C13         86.7300   121.3310   101.6060 c3         1 0NI      -0.057900
      9 C14         84.9240   119.5510   101.4530 c3         1 0NI      -0.042200
     10 C15         84.4080   119.6630   100.0010 c3         1 0NI      -0.029200
     11 C16         82.9510   119.2530    99.8640 c2         1 0NI      -0.217200
     12 C17         82.3350   118.7780    98.7640 c2         1 0NI      -0.106400
     13 C18         82.9930   118.5910    97.4030 c3         1 0NI      -0.049900
     14 C19         80.8590   118.4020    98.7700 c3         1 0NI      -0.035200
     15 C2          86.6440   116.8860   100.3120 cd         1 0NI      -0.266400
     16 C20         80.6200   116.8770    98.7610 c3         1 0NI      -0.037200
     17 C21         79.1500   116.5230    98.8920 c2         1 0NI      -0.221200
     18 C22         78.4520   116.3260   100.0270 c2         1 0NI      -0.115400
     19 C23         79.0090   116.4570   101.4370 c3         1 0NI      -0.055400
     20 C24         76.9840   115.9430   100.0210 c3         1 0NI      -0.055400
     21 C3          85.3890   116.0920   100.4100 c          1 0NI       0.593900
     22 C4          84.8160   115.6030    99.1440 ca         1 0NI      -0.208600
     23 C5          83.6250   114.8470    99.1070 ca         1 0NI      -0.021000
     24 C6          83.1190   114.3960    97.8770 ca         1 0NI      -0.161000
     25 C7          83.7990   114.7000    96.6880 ca         1 0NI      -0.050000
     26 C8          84.9840   115.4530    96.7390 ca         1 0NI      -0.182000
     27 C9          85.4920   115.9060    97.9690 ca         1 0NI       0.322000
     28 H1          89.3060   117.6320    99.6990 hc         1 0NI       0.057033
     29 H2          89.0320   117.7180    97.9580 hc         1 0NI       0.057033
     30 H3          88.3910   118.9890    99.0100 hc         1 0NI       0.057033
     31 H4          86.6030   117.1020   102.5040 hc         1 0NI       0.056700
     32 H5          88.1790   116.9210   101.8140 hc         1 0NI       0.056700
     33 H6          88.4180   119.2170   101.7620 ha         1 0NI       0.153000
     34 H9          86.2250   121.8270   102.4430 hc         1 0NI       0.037033
     35 H10         87.8050   121.5150   101.7180 hc         1 0NI       0.037033
     36 H11         86.4100   121.8250   100.6810 hc         1 0NI       0.037033
     37 H12         84.3490   120.2250   102.0990 hc         1 0NI       0.053200
     38 H13         84.7040   118.5430   101.8180 hc         1 0NI       0.053200
     39 H14         85.0460   119.0470    99.3590 hc         1 0NI       0.043200
     40 H15         84.5270   120.6980    99.6600 hc         1 0NI       0.043200
     41 H16         82.3790   119.3620   100.7860 ha         1 0NI       0.160000
     42 H19         84.0310   118.9380    97.3780 hc         1 0NI       0.037700
     43 H20         82.9970   117.5370    97.1060 hc         1 0NI       0.037700
     44 H21         82.4540   119.1490    96.6280 hc         1 0NI       0.037700
     45 H22         80.3750   118.8140    99.6630 hc         1 0NI       0.041200
     46 H23         80.3440   118.8570    97.9150 hc         1 0NI       0.041200
     47 H25         81.0150   116.4510    97.8320 hc         1 0NI       0.049200
     48 H26         81.2020   116.4220    99.5700 hc         1 0NI       0.049200
     49 H27         78.6510   116.4080    97.9280 ha         1 0NI       0.161000
     50 H30         78.4260   117.1790   102.0220 hc         1 0NI       0.037533
     51 H31         78.9700   115.4960   101.9640 hc         1 0NI       0.037533
     52 H32         80.0490   116.7980   101.4570 hc         1 0NI       0.037533
     53 H33         76.3770   116.6970   100.5380 hc         1 0NI       0.037533
     54 H34         76.5910   115.8480    99.0020 hc         1 0NI       0.037533
     55 H35         76.8250   114.9820   100.5250 hc         1 0NI       0.037533
     56 H36         83.0910   114.6070   100.0250 ha         1 0NI       0.137000
     57 H37         82.2010   113.8150    97.8460 ha         1 0NI       0.119000
     58 H38         83.4110   114.3540    95.7320 ha         1 0NI       0.114000
     59 H39         85.5080   115.6840    95.8160 ha         1 0NI       0.113000
     60 H24         87.1050   116.8080    97.0530 hn         1 0NI       0.501000
@<TRIPOS>BOND
     1     1     4 1   
     2     1    27 1   
     3     1    60 1   
     4     2     4 1   
     5     2    28 1   
     6     2    29 1   
     7     2    30 1   
     8     3    21 2   
     9     4    15 2   
    10     5     6 1   
    11     5    15 1   
    12     5    31 1   
    13     5    32 1   
    14     6     7 2   
    15     6    33 1   
    16     7     8 1   
    17     7     9 1   
    18     8    34 1   
    19     8    35 1   
    20     8    36 1   
    21     9    10 1   
    22     9    37 1   
    23     9    38 1   
    24    10    11 1   
    25    10    39 1   
    26    10    40 1   
    27    11    12 2   
    28    11    41 1   
    29    12    13 1   
    30    12    14 1   
    31    13    42 1   
    32    13    43 1   
    33    13    44 1   
    34    14    16 1   
    35    14    45 1   
    36    14    46 1   
    37    15    21 1   
    38    16    17 1   
    39    16    47 1   
    40    16    48 1   
    41    17    18 2   
    42    17    49 1   
    43    18    19 1   
    44    18    20 1   
    45    19    50 1   
    46    19    51 1   
    47    19    52 1   
    48    20    53 1   
    49    20    54 1   
    50    20    55 1   
    51    21    22 1   
    52    22    23 ar  
    53    22    27 ar  
    54    23    24 ar  
    55    23    56 1   
    56    24    25 ar  
    57    24    57 1   
    58    25    26 ar  
    59    25    58 1   
    60    26    27 ar  
    61    26    59 1   
@<TRIPOS>SUBSTRUCTURE
     1 0NI         1 TEMP              0 ****  ****    0 ROOT
