@<TRIPOS>MOLECULE
0NI
   60    61     1     0     0
SMALL
bcc


@<TRIPOS>ATOM
      1 N           88.1710   116.0110    98.1110 na         1 0NI      -0.600400
      2 C           89.3300   117.0570    99.9390 c3         1 0NI      -0.070900
      3 O           84.4930   116.4040    99.7210 o          1 0NI      -0.571100
      4 C1          88.0450   116.6030    99.3230 cc         1 0NI       0.163800
      5 C10         86.6590   117.4990   101.2200 c3         1 0NI       0.026000
      6 C11         86.8400   118.9870   101.0920 c2         1 0NI      -0.177200
      7 C12         85.8980   119.9340   101.0570 c2         1 0NI      -0.098400
      8 C13         86.2840   121.3800   100.9220 c3         1 0NI      -0.057900
      9 C14         84.4220   119.6650   101.1370 c3         1 0NI      -0.042200
     10 C15         83.6750   120.0470    99.8480 c3         1 0NI      -0.029200
     11 C16         82.2320   119.6620    99.9280 c2         1 0NI      -0.167200
     12 C17         81.5190   118.9200    99.0760 c2         1 0NI      -0.106400
     13 C18         82.0500   118.3480    97.7940 c3         1 0NI      -0.049900
     14 C19         80.0780   118.6010    99.3760 c3         1 0NI      -0.035200
     15 C2          86.8160   116.7830    99.9000 cd         1 0NI      -0.266400
     16 C20         79.8320   117.1060    99.6360 c3         1 0NI      -0.037200
     17 C21         78.3990   116.8330    99.9710 c2         1 0NI      -0.171200
     18 C22         77.8860   116.4690   101.1490 c2         1 0NI      -0.115400
     19 C23         78.6840   116.2370   102.3980 c3         1 0NI      -0.055400
     20 C24         76.4080   116.2610   101.3170 c3         1 0NI      -0.055400
     21 C3          85.6220   116.3140    99.2300 c          1 0NI       0.593900
     22 C4          85.8200   115.7090    97.9080 ca         1 0NI      -0.208600
     23 C5          84.7290   115.2570    97.1510 ca         1 0NI      -0.039000
     24 C6          84.9150   114.6930    95.9110 ca         1 0NI      -0.179000
     25 C7          86.2110   114.5620    95.3950 ca         1 0NI      -0.068000
     26 C8          87.3000   114.9930    96.1150 ca         1 0NI      -0.200000
     27 C9          87.1060   115.5730    97.3780 ca         1 0NI       0.183600
     28 H1          89.2710   117.0820   101.0230 hc         1 0NI       0.057033
     29 H2          90.1560   116.4020    99.6610 hc         1 0NI       0.057033
     30 H3          89.5790   118.0640    99.5980 hc         1 0NI       0.057033
     31 H4          85.6800   117.2570   101.6290 hc         1 0NI       0.056700
     32 H5          87.3870   117.1190   101.9420 hc         1 0NI       0.056700
     33 H6          87.8730   119.3160   101.0080 ha         1 0NI       0.103000
     34 H9          85.8500   121.9770   101.7280 hc         1 0NI       0.037033
     35 H10         87.3650   121.5140   100.9460 hc         1 0NI       0.037033
     36 H11         85.9190   121.8120    99.9870 hc         1 0NI       0.037033
     37 H12         83.9960   120.2390   101.9680 hc         1 0NI       0.053200
     38 H13         84.2270   118.6140   101.3470 hc         1 0NI       0.053200
     39 H14         84.1710   119.5740    98.9980 hc         1 0NI       0.043200
     40 H15         83.7540   121.1270    99.6900 hc         1 0NI       0.043200
     41 H16         81.7180   120.0270   100.8160 ha         1 0NI       0.110000
     42 H19         83.0530   118.6930    97.5520 hc         1 0NI       0.037700
     43 H20         82.0790   117.2570    97.8270 hc         1 0NI       0.037700
     44 H21         81.3950   118.6150    96.9610 hc         1 0NI       0.037700
     45 H22         79.7490   119.1660   100.2520 hc         1 0NI       0.041200
     46 H23         79.4460   118.9220    98.5400 hc         1 0NI       0.041200
     47 H25         80.1000   116.5340    98.7430 hc         1 0NI       0.049200
     48 H26         80.5020   116.7690   100.4290 hc         1 0NI       0.049200
     49 H27         77.7030   116.9800    99.1470 ha         1 0NI       0.111000
     50 H30         78.3520   116.9100   103.1920 hc         1 0NI       0.037533
     51 H31         78.5280   115.2220   102.7710 hc         1 0NI       0.037533
     52 H32         79.7540   116.3830   102.2670 hc         1 0NI       0.037533
     53 H33         76.0040   116.9270   102.0840 hc         1 0NI       0.037533
     54 H34         75.8600   116.4400   100.3920 hc         1 0NI       0.037533
     55 H35         76.1910   115.2420   101.6480 hc         1 0NI       0.037533
     56 H36         83.7330   115.3600    97.5600 ha         1 0NI       0.155000
     57 H37         84.0670   114.3490    95.3340 ha         1 0NI       0.137000
     58 H38         86.3610   114.1180    94.4190 ha         1 0NI       0.132000
     59 H39         88.3030   114.8920    95.7170 ha         1 0NI       0.131000
     60 H24         89.0960   115.8930    97.7250 hn         1 0NI       0.445800
@<TRIPOS>BOND
     1     1     4 1   
     2     1    27 1   
     3     1    60 1   
     4     2     4 1   
     5     2    28 1   
     6     2    29 1   
     7     2    30 1   
     8     3    21 2   
     9     4    15 2   
    10     5     6 1   
    11     5    15 1   
    12     5    31 1   
    13     5    32 1   
    14     6     7 2   
    15     6    33 1   
    16     7     8 1   
    17     7     9 1   
    18     8    34 1   
    19     8    35 1   
    20     8    36 1   
    21     9    10 1   
    22     9    37 1   
    23     9    38 1   
    24    10    11 1   
    25    10    39 1   
    26    10    40 1   
    27    11    12 2   
    28    11    41 1   
    29    12    13 1   
    30    12    14 1   
    31    13    42 1   
    32    13    43 1   
    33    13    44 1   
    34    14    16 1   
    35    14    45 1   
    36    14    46 1   
    37    15    21 1   
    38    16    17 1   
    39    16    47 1   
    40    16    48 1   
    41    17    18 2   
    42    17    49 1   
    43    18    19 1   
    44    18    20 1   
    45    19    50 1   
    46    19    51 1   
    47    19    52 1   
    48    20    53 1   
    49    20    54 1   
    50    20    55 1   
    51    21    22 1   
    52    22    23 ar  
    53    22    27 ar  
    54    23    24 ar  
    55    23    56 1   
    56    24    25 ar  
    57    24    57 1   
    58    25    26 ar  
    59    25    58 1   
    60    26    27 ar  
    61    26    59 1   
@<TRIPOS>SUBSTRUCTURE
     1 0NI         1 TEMP              0 ****  ****    0 ROOT
