@<TRIPOS>MOLECULE
0NJ
   28    30     1     0     0
SMALL
abcg2


@<TRIPOS>ATOM
      1 F16          2.7160    -1.9910     0.0290 f          1 0NJ      -0.172000
      2 C11          3.2430    -0.7560     0.0210 ca         1 0NJ       0.184000
      3 C12          4.6180    -0.6350     0.0250 ca         1 0NJ      -0.155000
      4 C13          5.1760     0.6330     0.0160 ca         1 0NJ      -0.071000
      5 C14          4.3540     1.7550     0.0040 ca         1 0NJ      -0.133000
      6 C15          2.9800     1.6070     0.0020 ca         1 0NJ      -0.045000
      7 C10          2.3870     0.3380     0.0100 ca         1 0NJ      -0.153900
      8 C8           0.9290     0.2260     0.0050 cc         1 0NJ       0.437800
      9 S7           0.0890    -1.3180     0.0180 ss         1 0NJ       0.076800
     10 C2          -1.4150    -0.4680     0.0030 ca         1 0NJ      -0.161000
     11 N9           0.1610     1.2610    -0.0080 nd         1 0NJ      -0.532100
     12 C3          -1.1630     0.9130    -0.0100 ca         1 0NJ       0.057400
     13 C4          -2.2410     1.7940    -0.0220 ca         1 0NJ      -0.016000
     14 C5          -3.5300     1.2970    -0.0220 ca         1 0NJ      -0.195000
     15 C6          -3.7660    -0.0890    -0.0090 ca         1 0NJ       0.153100
     16 C1          -2.7000    -0.9850     0.0040 ca         1 0NJ      -0.119000
     17 O17         -4.9940    -0.6360    -0.0090 os         1 0NJ      -0.340100
     18 C18         -6.1240     0.2150    -0.0150 c3         1 0NJ       0.148900
     19 H1           5.2380    -1.5220     0.0360 ha         1 0NJ       0.135000
     20 H2           6.2520     0.7420     0.0140 ha         1 0NJ       0.120000
     21 H3           4.7860     2.7460    -0.0030 ha         1 0NJ       0.122000
     22 H4           2.3400     2.4780    -0.0070 ha         1 0NJ       0.142000
     23 H5          -2.0700     2.8630    -0.0330 ha         1 0NJ       0.130000
     24 H6          -4.3520     1.9990    -0.0340 ha         1 0NJ       0.121000
     25 H7          -2.8840    -2.0520     0.0150 ha         1 0NJ       0.139000
     26 H8          -6.1590     0.8550     0.8700 h1         1 0NJ       0.042700
     27 H9          -6.1590     0.8420    -0.9090 h1         1 0NJ       0.042700
     28 H10         -6.9960    -0.4330    -0.0110 h1         1 0NJ       0.042700
@<TRIPOS>BOND
     1     1     2 1   
     2     2     3 ar  
     3     2     7 ar  
     4     3     4 ar  
     5     3    19 1   
     6     4     5 ar  
     7     4    20 1   
     8     5     6 ar  
     9     5    21 1   
    10     6     7 ar  
    11     6    22 1   
    12     7     8 1   
    13     8     9 1   
    14     8    11 2   
    15     9    10 1   
    16    10    12 ar  
    17    10    16 ar  
    18    11    12 1   
    19    12    13 ar  
    20    13    14 ar  
    21    13    23 1   
    22    14    15 ar  
    23    14    24 1   
    24    15    16 ar  
    25    15    17 1   
    26    16    25 1   
    27    17    18 1   
    28    18    26 1   
    29    18    27 1   
    30    18    28 1   
@<TRIPOS>SUBSTRUCTURE
     1 0NJ         1 TEMP              0 ****  ****    0 ROOT
