@<TRIPOS>MOLECULE
0NJ
   28    30     1     0     0
SMALL
No Charge or Current Charge


@<TRIPOS>ATOM
      1 F16          2.7350    -1.9100    -0.7790 f          1 0NJ      -0.172000
      2 C11          3.2490    -0.7370    -0.3470 ca         1 0NJ       0.184000
      3 C12          4.6460    -0.5950    -0.3220 ca         1 0NJ      -0.155000
      4 C13          5.2280     0.6210     0.0710 ca         1 0NJ      -0.071000
      5 C14          4.4040     1.6990     0.4270 ca         1 0NJ      -0.133000
      6 C15          3.0050     1.5610     0.4010 ca         1 0NJ      -0.045000
      7 C10          2.4070     0.3310     0.0380 ca         1 0NJ      -0.153900
      8 C8           0.9420     0.2200    -0.0140 cc         1 0NJ       0.437800
      9 S7           0.1100    -1.2820     0.4780 ss         1 0NJ       0.076800
     10 C2          -1.3810    -0.3970     0.2080 ca         1 0NJ      -0.161000
     11 N9           0.1780     1.2830    -0.3220 nd         1 0NJ      -0.532100
     12 C3          -1.1520     0.9000    -0.1990 ca         1 0NJ       0.057400
     13 C4          -2.2380     1.7530    -0.4570 ca         1 0NJ      -0.016000
     14 C5          -3.5550     1.2710    -0.2990 ca         1 0NJ      -0.195000
     15 C6          -3.7790    -0.0650     0.1180 ca         1 0NJ       0.153100
     16 C1          -2.6790    -0.9050     0.3740 ca         1 0NJ      -0.119000
     17 O17         -5.0450    -0.5880     0.2890 os         1 0NJ      -0.340100
     18 C18         -6.2330     0.1880     0.0540 c3         1 0NJ       0.148900
     19 H1           5.2780    -1.4280    -0.6190 ha         1 0NJ       0.135000
     20 H2           6.3100     0.7300     0.0880 ha         1 0NJ       0.120000
     21 H3           4.8490     2.6480     0.7210 ha         1 0NJ       0.122000
     22 H4           2.3860     2.4120     0.6790 ha         1 0NJ       0.142000
     23 H5          -2.0630     2.7770    -0.7760 ha         1 0NJ       0.130000
     24 H6          -4.3820     1.9450    -0.5040 ha         1 0NJ       0.121000
     25 H7          -2.8380    -1.9310     0.6960 ha         1 0NJ       0.139000
     26 H8          -6.2650     1.0630     0.7160 h1         1 0NJ       0.042700
     27 H9          -6.2750     0.5320    -0.9880 h1         1 0NJ       0.042700
     28 H10         -7.1270    -0.4170     0.2480 h1         1 0NJ       0.042700
@<TRIPOS>BOND
     1     1     2 1   
     2     2     3 ar  
     3     2     7 ar  
     4     3     4 ar  
     5     3    19 1   
     6     4     5 ar  
     7     4    20 1   
     8     5     6 ar  
     9     5    21 1   
    10     6     7 ar  
    11     6    22 1   
    12     7     8 1   
    13     8     9 1   
    14     8    11 2   
    15     9    10 1   
    16    10    12 ar  
    17    10    16 ar  
    18    11    12 1   
    19    12    13 ar  
    20    13    14 ar  
    21    13    23 1   
    22    14    15 ar  
    23    14    24 1   
    24    15    16 ar  
    25    15    17 1   
    26    16    25 1   
    27    17    18 1   
    28    18    26 1   
    29    18    27 1   
    30    18    28 1   
@<TRIPOS>SUBSTRUCTURE
     1 0NJ         1 TEMP              0 ****  ****    0 ROOT
