@<TRIPOS>MOLECULE
0NK
   45    46     1     0     0
SMALL
bcc


@<TRIPOS>ATOM
      1 N1          -2.4430     0.3510    -0.0820 nu         1 0NK      -0.865900
      2 C1           0.8670    -1.1150     0.3440 ca         1 0NK       0.406600
      3 C2          -0.0760    -0.1060     0.0930 ca         1 0NK      -0.271600
      4 C3           2.2450    -0.7800     0.2930 ca         1 0NK       0.059800
      5 N2           0.5170    -2.3970     0.6230 nb         1 0NK      -0.722000
      6 C4           0.3380     1.2100    -0.1920 ca         1 0NK      -0.199000
      7 C5          -1.4570    -0.5220     0.1490 ca         1 0NK       0.735200
      8 C6           2.6430     0.5080     0.0280 ca         1 0NK       0.086100
      9 C7          -0.7630    -2.6340     0.6520 ca         1 0NK       0.686900
     10 C8           1.6770     1.5170    -0.2340 ca         1 0NK       0.120100
     11 N3          -1.7650    -1.7780     0.4320 nb         1 0NK      -0.816000
     12 O2           3.9540     0.8380     0.0290 os         1 0NK      -0.317900
     13 C9           3.4610    -2.0190     1.8520 c3         1 0NK       0.132700
     14 O3           2.1860     2.7290    -0.4990 os         1 0NK      -0.297900
     15 C10          4.5990     0.6970    -1.2320 c3         1 0NK       0.128700
     16 C11          1.2870     3.7820    -0.7900 c3         1 0NK       0.120700
     17 C12         -3.8650     0.0570    -0.0730 c3         1 0NK       0.229500
     18 C13         -4.5830     0.9760     0.9150 c3         1 0NK      -0.089900
     19 C14         -4.4490     0.1730    -1.4820 c3         1 0NK      -0.089900
     20 C15         -4.1190     0.8030     2.3530 c3         1 0NK      -0.088100
     21 C16         -3.7960    -0.7610    -2.4910 c3         1 0NK      -0.088100
     22 H1          -2.1990     1.2950    -0.3300 hn         1 0NK       0.431800
     23 H2          -0.3900     1.9870    -0.3760 ha         1 0NK       0.130000
     24 H3          -1.0670    -3.6520     0.8780 h5         1 0NK       0.043100
     25 H4           4.2320    -2.7860     1.8680 h1         1 0NK       0.040033
     26 H5           3.8350    -1.1340     2.3730 h1         1 0NK       0.040033
     27 H6           2.5790    -2.3950     2.3740 h1         1 0NK       0.040033
     28 H7           5.6320     1.0120    -1.0980 h1         1 0NK       0.039367
     29 H8           4.5880    -0.3410    -1.5720 h1         1 0NK       0.039367
     30 H9           4.1360     1.3250    -1.9960 h1         1 0NK       0.039367
     31 H10          1.8950     4.6590    -0.9950 h1         1 0NK       0.041700
     32 H11          0.6760     3.5610    -1.6690 h1         1 0NK       0.041700
     33 H12          0.6270     3.9980     0.0540 h1         1 0NK       0.041700
     34 H13         -3.9730    -0.9740     0.2650 h1         1 0NK       0.095700
     35 H14         -4.4560     2.0180     0.6010 hc         1 0NK       0.041200
     36 H15         -5.6540     0.7690     0.8470 hc         1 0NK       0.041200
     37 H16         -5.5180    -0.0450    -1.4190 hc         1 0NK       0.041200
     38 H17         -4.3680     1.2100    -1.8240 hc         1 0NK       0.041200
     39 H18         -4.6780     1.4550     3.0250 hc         1 0NK       0.037700
     40 H19         -4.2620    -0.2240     2.6920 hc         1 0NK       0.037700
     41 H20         -3.0620     1.0450     2.4680 hc         1 0NK       0.037700
     42 H21         -4.2860    -0.6840    -3.4630 hc         1 0NK       0.037700
     43 H22         -2.7420    -0.5240    -2.6370 hc         1 0NK       0.037700
     44 H23         -3.8630    -1.8010    -2.1680 hc         1 0NK       0.037700
     45 O1           3.1810    -1.7370     0.4860 os         1 0NK      -0.315900
@<TRIPOS>BOND
     1     1     7 1   
     2     1    17 1   
     3     1    22 1   
     4     2     3 ar  
     5     2     4 ar  
     6     2     5 ar  
     7     3     6 ar  
     8     3     7 ar  
     9     4     8 ar  
    10     4    45 1   
    11     5     9 ar  
    12     6    10 ar  
    13     6    23 1   
    14     7    11 ar  
    15     8    10 ar  
    16     8    12 1   
    17     9    11 ar  
    18     9    24 1   
    19    10    14 1   
    20    12    15 1   
    21    13    25 1   
    22    13    26 1   
    23    13    27 1   
    24    13    45 1   
    25    14    16 1   
    26    15    28 1   
    27    15    29 1   
    28    15    30 1   
    29    16    31 1   
    30    16    32 1   
    31    16    33 1   
    32    17    18 1   
    33    17    19 1   
    34    17    34 1   
    35    18    20 1   
    36    18    35 1   
    37    18    36 1   
    38    19    21 1   
    39    19    37 1   
    40    19    38 1   
    41    20    39 1   
    42    20    40 1   
    43    20    41 1   
    44    21    42 1   
    45    21    43 1   
    46    21    44 1   
@<TRIPOS>SUBSTRUCTURE
     1 0NK         1 TEMP              0 ****  ****    0 ROOT
