@<TRIPOS>MOLECULE
0NK
   45    46     1     0     0
SMALL
No Charge or Current Charge


@<TRIPOS>ATOM
      1 N1          -2.4980     0.4020     0.1910 nu         1 0NK      -0.921100
      2 C1           0.9380    -1.0510     0.0920 ca         1 0NK       0.013000
      3 C2          -0.0810    -0.0650     0.0380 ca         1 0NK      -0.141000
      4 C3           2.2940    -0.6670    -0.0820 ca         1 0NK       0.125100
      5 N2           0.6000    -2.3470     0.2950 nb         1 0NK      -0.196000
      6 C4           0.2590     1.2860    -0.1970 ca         1 0NK      -0.181000
      7 C5          -1.4240    -0.4910     0.2200 ca         1 0NK       0.406900
      8 C6           2.6320     0.6950    -0.3530 ca         1 0NK       0.086100
      9 C7          -0.7030    -2.6460     0.4530 ca         1 0NK       0.160900
     10 C8           1.6030     1.6640    -0.3960 ca         1 0NK       0.120100
     11 N3          -1.7310    -1.7820     0.4290 nb         1 0NK      -0.290000
     12 O2           3.9280     1.1620    -0.5770 os         1 0NK      -0.341100
     13 C9           3.6150    -2.2040     1.2790 c3         1 0NK       0.155900
     14 O3           1.9540     2.9830    -0.6450 os         1 0NK      -0.321100
     15 C10          5.0910     0.3310    -0.7400 c3         1 0NK       0.151900
     16 C11          0.9890     4.0480    -0.7140 c3         1 0NK       0.143900
     17 C12         -3.9340     0.0910     0.0690 c3         1 0NK       0.229500
     18 C13         -4.7430     1.1110     0.9110 c3         1 0NK      -0.089900
     19 C14         -4.3590     0.1210    -1.4230 c3         1 0NK      -0.089900
     20 C15         -4.4910     1.0170     2.4320 c3         1 0NK      -0.088100
     21 C16         -3.7170    -0.9760    -2.3010 c3         1 0NK      -0.088100
     22 H1          -2.2360     1.3780     0.0780 hn         1 0NK       0.487000
     23 H2          -0.5230     2.0360    -0.2370 ha         1 0NK       0.112000
     24 H3          -0.9480    -3.6940     0.6180 h5         1 0NK       0.043100
     25 H4           4.4300    -2.9300     1.1690 h1         1 0NK       0.040033
     26 H5           3.9470    -1.4190     1.9700 h1         1 0NK       0.040033
     27 H6           2.7600    -2.7210     1.7320 h1         1 0NK       0.040033
     28 H7           5.9590     0.9470    -1.0050 h1         1 0NK       0.039367
     29 H8           5.3330    -0.1960     0.1910 h1         1 0NK       0.039367
     30 H9           4.9410    -0.4020    -1.5440 h1         1 0NK       0.039367
     31 H10          1.4920     5.0020    -0.9190 h1         1 0NK       0.041700
     32 H11          0.2640     3.8670    -1.5170 h1         1 0NK       0.041700
     33 H12          0.4480     4.1470     0.2360 h1         1 0NK       0.041700
     34 H13         -4.1570    -0.9080     0.4740 h1         1 0NK       0.095700
     35 H14         -4.5260     2.1310     0.5690 hc         1 0NK       0.041200
     36 H15         -5.8130     0.9450     0.7350 hc         1 0NK       0.041200
     37 H16         -5.4480     0.0020    -1.4790 hc         1 0NK       0.041200
     38 H17         -4.1310     1.1050    -1.8520 hc         1 0NK       0.041200
     39 H18         -5.1300     1.7280     2.9690 hc         1 0NK       0.037700
     40 H19         -4.7150     0.0090     2.8010 hc         1 0NK       0.037700
     41 H20         -3.4470     1.2500     2.6750 hc         1 0NK       0.037700
     42 H21         -4.1320    -0.9430    -3.3150 hc         1 0NK       0.037700
     43 H22         -2.6320    -0.8380    -2.3760 hc         1 0NK       0.037700
     44 H23         -3.9130    -1.9710    -1.8840 hc         1 0NK       0.037700
     45 O1           3.2740    -1.6400    -0.0000 os         1 0NK      -0.339100
@<TRIPOS>BOND
     1     1     7 1   
     2     1    17 1   
     3     1    22 1   
     4     2     3 ar  
     5     2     4 ar  
     6     2     5 ar  
     7     3     6 ar  
     8     3     7 ar  
     9     4     8 ar  
    10     4    45 1   
    11     5     9 ar  
    12     6    10 ar  
    13     6    23 1   
    14     7    11 ar  
    15     8    10 ar  
    16     8    12 1   
    17     9    11 ar  
    18     9    24 1   
    19    10    14 1   
    20    12    15 1   
    21    13    25 1   
    22    13    26 1   
    23    13    27 1   
    24    13    45 1   
    25    14    16 1   
    26    15    28 1   
    27    15    29 1   
    28    15    30 1   
    29    16    31 1   
    30    16    32 1   
    31    16    33 1   
    32    17    18 1   
    33    17    19 1   
    34    17    34 1   
    35    18    20 1   
    36    18    35 1   
    37    18    36 1   
    38    19    21 1   
    39    19    37 1   
    40    19    38 1   
    41    20    39 1   
    42    20    40 1   
    43    20    41 1   
    44    21    42 1   
    45    21    43 1   
    46    21    44 1   
@<TRIPOS>SUBSTRUCTURE
     1 0NK         1 TEMP              0 ****  ****    0 ROOT
