@<TRIPOS>MOLECULE
0NL
   48    51     1     0     0
SMALL
bcc


@<TRIPOS>ATOM
      1 C1           5.8560    -0.8930     1.3210 c3         1 0NL      -0.109100
      2 C2           5.4900    -1.0560    -0.1500 c3         1 0NL       0.201800
      3 C3           6.4170    -0.2520    -1.0550 c3         1 0NL      -0.109100
      4 C4           5.5470    -2.5290    -0.5350 c3         1 0NL      -0.109100
      5 O5           4.1000    -0.7070    -0.3820 os         1 0NL      -0.456900
      6 C6           3.6200     0.5170    -0.1570 c          1 0NL       0.764100
      7 O7           4.2640     1.4750     0.2250 o          1 0NL      -0.600000
      8 N8           2.3000     0.5660    -0.4220 ns         1 0NL      -0.579900
      9 C9           1.5360     1.7820    -0.2290 c5         1 0NL       0.134700
     10 C11          1.3170     2.1280     1.2720 c5         1 0NL      -0.098400
     11 C12         -0.1990     2.1390     1.5000 c5         1 0NL      -0.093400
     12 C13         -0.7210     1.2180     0.4010 c5         1 0NL       0.051000
     13 C15          0.1260     1.6120    -0.8060 c5         1 0NL      -0.113400
     14 N16         -2.1510     1.2880     0.1740 na         1 0NL      -0.132300
     15 C17         -2.8970     2.4210     0.0020 cc         1 0NL       0.394700
     16 N18         -4.1550     2.1890    -0.2210 nd         1 0NL      -0.547100
     17 C19         -4.2650     0.8180    -0.2060 ca         1 0NL      -0.089900
     18 C20         -3.0130     0.2400     0.0360 ca         1 0NL      -0.009200
     19 C21         -2.8900    -1.1530     0.0850 ca         1 0NL      -0.198100
     20 C22         -1.8870    -2.1480     0.2780 cc         1 0NL      -0.182200
     21 C23         -2.5220    -3.3570     0.1870 cd         1 0NL      -0.118100
     22 N24         -3.8490    -3.1660    -0.0490 na         1 0NL      -0.255100
     23 C26         -4.1130    -1.8310    -0.1200 ca         1 0NL       0.424800
     24 N27         -5.3200    -1.3070    -0.3480 nb         1 0NL      -0.694000
     25 C28         -5.3940     0.0070    -0.3900 ca         1 0NL       0.494200
     26 H1           5.8750     0.1490     1.6330 hc         1 0NL       0.049700
     27 H1A          5.1570    -1.4360     1.9610 hc         1 0NL       0.049700
     28 H1B          6.8490    -1.3090     1.4910 hc         1 0NL       0.049700
     29 H3           7.4290    -0.6520    -0.9780 hc         1 0NL       0.049700
     30 H3A          6.1110    -0.3330    -2.0990 hc         1 0NL       0.049700
     31 H3B          6.4540     0.8000    -0.7810 hc         1 0NL       0.049700
     32 H4           4.8720    -3.1270     0.0800 hc         1 0NL       0.049700
     33 H4A          5.2810    -2.6770    -1.5820 hc         1 0NL       0.049700
     34 H4B          6.5580    -2.9100    -0.3890 hc         1 0NL       0.049700
     35 HN8          1.8280    -0.2770    -0.7090 hn         1 0NL       0.327500
     36 H9           2.0540     2.5960    -0.7380 h1         1 0NL       0.077700
     37 H11          1.7890     1.3690     1.8950 hc         1 0NL       0.064200
     38 H11A         1.7680     3.0840     1.5350 hc         1 0NL       0.064200
     39 H12         -0.4850     1.8050     2.4970 hc         1 0NL       0.057200
     40 H12A        -0.5960     3.1470     1.3640 hc         1 0NL       0.057200
     41 H13         -0.5050     0.1860     0.6810 h1         1 0NL       0.077700
     42 H15         -0.2230     2.5730    -1.1920 hc         1 0NL       0.067200
     43 H15A         0.0780     0.8980    -1.6300 hc         1 0NL       0.067200
     44 H17         -2.4520     3.4030     0.0560 h5         1 0NL       0.062800
     45 H22         -0.8350    -2.0090     0.4620 ha         1 0NL       0.150000
     46 H23         -2.1160    -4.3510     0.2750 h4         1 0NL       0.165000
     47 HN24        -4.5330    -3.8960    -0.1670 hn         1 0NL       0.310700
     48 H28         -6.3670     0.4500    -0.5750 h4         1 0NL       0.036100
@<TRIPOS>BOND
     1     1     2 1   
     2     1    26 1   
     3     1    27 1   
     4     1    28 1   
     5     2     3 1   
     6     2     4 1   
     7     2     5 1   
     8     3    29 1   
     9     3    30 1   
    10     3    31 1   
    11     4    32 1   
    12     4    33 1   
    13     4    34 1   
    14     5     6 1   
    15     6     7 2   
    16     6     8 1   
    17     8     9 1   
    18     8    35 1   
    19     9    10 1   
    20     9    13 1   
    21     9    36 1   
    22    10    11 1   
    23    10    37 1   
    24    10    38 1   
    25    11    12 1   
    26    11    39 1   
    27    11    40 1   
    28    12    13 1   
    29    12    14 1   
    30    12    41 1   
    31    13    42 1   
    32    13    43 1   
    33    14    15 1   
    34    14    18 1   
    35    15    16 2   
    36    15    44 1   
    37    16    17 1   
    38    17    18 ar  
    39    17    25 ar  
    40    18    19 ar  
    41    19    20 1   
    42    19    23 ar  
    43    20    21 2   
    44    20    45 1   
    45    21    22 1   
    46    21    46 1   
    47    22    23 1   
    48    22    47 1   
    49    23    24 ar  
    50    24    25 ar  
    51    25    48 1   
@<TRIPOS>SUBSTRUCTURE
     1 0NL         1 TEMP              0 ****  ****    0 ROOT
