@<TRIPOS>MOLECULE
0NL
   48    51     1     0     0
SMALL
No Charge or Current Charge


@<TRIPOS>ATOM
      1 C1           5.9930    -0.6540     1.2590 c3         1 0NL      -0.109100
      2 C2           5.3750    -1.1780    -0.0630 c3         1 0NL       0.225000
      3 C3           6.1100    -0.6560    -1.3250 c3         1 0NL      -0.109100
      4 C4           5.3630    -2.7230    -0.0630 c3         1 0NL      -0.109100
      5 O5           3.9770    -0.8100    -0.1270 os         1 0NL      -0.480100
      6 C6           3.5570     0.4910    -0.1440 c          1 0NL       0.648100
      7 O7           4.2560     1.4920    -0.1180 o          1 0NL      -0.551000
      8 N8           2.1900     0.4840    -0.1990 ns         1 0NL      -0.512900
      9 C9           1.4830     1.7680    -0.2150 c5         1 0NL       0.134700
     10 C11          1.3450     2.1890     1.2860 c5         1 0NL      -0.098400
     11 C12         -0.1630     2.5230     1.4090 c5         1 0NL      -0.093400
     12 C13         -0.7780     1.3240     0.6380 c5         1 0NL       0.080300
     13 C15          0.0310     1.4290    -0.6860 c5         1 0NL      -0.113400
     14 N16         -2.2350     1.3410     0.4570 na         1 0NL      -0.161600
     15 C17         -3.0780     2.4580     0.5790 cc         1 0NL       0.394700
     16 N18         -4.3690     2.1430     0.3350 nd         1 0NL      -0.547100
     17 C19         -4.3280     0.7770     0.0480 ca         1 0NL      -0.024600
     18 C20         -3.0530     0.2970     0.1200 ca         1 0NL      -0.009200
     19 C21         -2.8240    -1.0590    -0.1430 ca         1 0NL      -0.132800
     20 C22         -1.6290    -1.8510    -0.1520 cc         1 0NL      -0.232200
     21 C23         -2.0110    -3.1400    -0.4850 cd         1 0NL      -0.168100
     22 N24         -3.4160    -3.1570    -0.6810 na         1 0NL      -0.305400
     23 C26         -3.8910    -1.8770    -0.4670 ca         1 0NL       0.359500
     24 N27         -5.1680    -1.4330    -0.5460 nb         1 0NL      -0.694000
     25 C28         -5.3860    -0.1080    -0.2890 ca         1 0NL       0.428900
     26 H1           6.1400     0.4310     1.2420 hc         1 0NL       0.049700
     27 H1A          5.3510    -0.9030     2.1130 hc         1 0NL       0.049700
     28 H1B          6.9750    -1.1110     1.4290 hc         1 0NL       0.049700
     29 H3           7.1030    -1.1140    -1.4050 hc         1 0NL       0.049700
     30 H3A          5.5490    -0.9060    -2.2340 hc         1 0NL       0.049700
     31 H3B          6.2560     0.4290    -1.2960 hc         1 0NL       0.049700
     32 H4           4.8080    -3.1080     0.8020 hc         1 0NL       0.049700
     33 H4A          4.8890    -3.1090    -0.9730 hc         1 0NL       0.049700
     34 H4B          6.3830    -3.1210    -0.0160 hc         1 0NL       0.049700
     35 HN8          1.7460    -0.4240    -0.2240 hn         1 0NL       0.327500
     36 H9           1.9590     2.5310    -0.8480 h1         1 0NL       0.077700
     37 H11          1.6200     1.3880     1.9830 hc         1 0NL       0.064200
     38 H11A         1.9800     3.0490     1.5280 hc         1 0NL       0.064200
     39 H12         -0.4940     2.5640     2.4540 hc         1 0NL       0.057200
     40 H12A        -0.3980     3.4900     0.9470 hc         1 0NL       0.057200
     41 H13         -0.5160     0.3990     1.1690 h1         1 0NL       0.077700
     42 H15         -0.3590     2.2440    -1.3070 hc         1 0NL       0.067200
     43 H15A        -0.0370     0.5230    -1.2990 hc         1 0NL       0.067200
     44 H17         -2.7070     3.4420     0.8360 h5         1 0NL       0.062800
     45 H22         -0.6100    -1.5360     0.0560 ha         1 0NL       0.200000
     46 H23         -1.3990    -4.0340    -0.5970 h4         1 0NL       0.215000
     47 HN24        -3.9880    -3.9540    -0.9330 hn         1 0NL       0.361000
     48 H28         -6.4140     0.2450    -0.3540 h4         1 0NL       0.036100
@<TRIPOS>BOND
     1     1     2 1   
     2     1    26 1   
     3     1    27 1   
     4     1    28 1   
     5     2     3 1   
     6     2     4 1   
     7     2     5 1   
     8     3    29 1   
     9     3    30 1   
    10     3    31 1   
    11     4    32 1   
    12     4    33 1   
    13     4    34 1   
    14     5     6 1   
    15     6     7 2   
    16     6     8 1   
    17     8     9 1   
    18     8    35 1   
    19     9    10 1   
    20     9    13 1   
    21     9    36 1   
    22    10    11 1   
    23    10    37 1   
    24    10    38 1   
    25    11    12 1   
    26    11    39 1   
    27    11    40 1   
    28    12    13 1   
    29    12    14 1   
    30    12    41 1   
    31    13    42 1   
    32    13    43 1   
    33    14    15 1   
    34    14    18 1   
    35    15    16 2   
    36    15    44 1   
    37    16    17 1   
    38    17    18 ar  
    39    17    25 ar  
    40    18    19 ar  
    41    19    20 1   
    42    19    23 ar  
    43    20    21 2   
    44    20    45 1   
    45    21    22 1   
    46    21    46 1   
    47    22    23 1   
    48    22    47 1   
    49    23    24 ar  
    50    24    25 ar  
    51    25    48 1   
@<TRIPOS>SUBSTRUCTURE
     1 0NL         1 TEMP              0 ****  ****    0 ROOT
