@<TRIPOS>MOLECULE
0NM
    4     3     1     0     0
SMALL
No Charge or Current Charge


@<TRIPOS>ATOM
      1 N           -1.2990    -0.0450     0.0490 n1         1 0NM      -0.486000
      2 C           -0.1390     0.0040     0.0000 c1         1 0NM       0.419600
      3 O            1.1570    -0.0210    -0.0540 oh         1 0NM      -0.434600
      4 H            1.4770     0.9030    -0.0640 ho         1 0NM       0.501000
@<TRIPOS>BOND
     1     1     2 3   
     2     2     3 1   
     3     3     4 1   
@<TRIPOS>SUBSTRUCTURE
     1 0NM         1 TEMP              0 ****  ****    0 ROOT
