@<TRIPOS>MOLECULE
0NM
    4     3     1     0     0
SMALL
abcg2


@<TRIPOS>ATOM
      1 N           -1.2940    -0.0560     0.0490 n1         1 0NM      -0.486000
      2 C           -0.1420     0.0050     0.0000 c1         1 0NM       0.419600
      3 O            1.1300    -0.0030    -0.0530 oh         1 0NM      -0.434600
      4 H            1.5020     0.8940    -0.0650 ho         1 0NM       0.501000
@<TRIPOS>BOND
     1     1     2 3   
     2     2     3 1   
     3     3     4 1   
@<TRIPOS>SUBSTRUCTURE
     1 0NM         1 TEMP              0 ****  ****    0 ROOT
