@<TRIPOS>MOLECULE
0NN
   67    71     1     0     0
SMALL
No Charge or Current Charge


@<TRIPOS>ATOM
      1 C4          -9.1340    -1.2240    -1.3810 ca         1 0NN      -0.106000
      2 C3          -8.2680    -0.4470    -2.1820 ca         1 0NN      -0.110000
      3 C2          -6.9810    -0.1090    -1.7170 ca         1 0NN      -0.083000
      4 C1          -6.5850    -0.5650    -0.4480 ca         1 0NN      -0.112300
      5 O1          -5.3540    -1.3110     1.3900 os         1 0NN      -0.461000
      6 N1          -2.7040     1.1020     0.6910 n3         1 0NN      -0.723600
      7 C10         -3.8750     1.3620     1.5760 c6         1 0NN       0.169800
      8 C11         -4.0330    -0.6090    -0.5830 c6         1 0NN      -0.072900
      9 C12         -2.7270    -0.3030     0.1850 c6         1 0NN       0.169800
     10 C14         -0.1920     1.4660     0.4280 c3         1 0NN      -0.097400
     11 C15          1.0620     2.0320     1.1190 c3         1 0NN       0.101000
     12 C16          3.5300     2.1560     0.6560 c          1 0NN       0.561100
     13 C17          4.5060     2.0650    -0.5890 c5         1 0NN       0.123500
     14 C18          5.5140     3.2640    -0.5560 c5         1 0NN      -0.070400
     15 C19          6.8960     2.6060    -0.2440 c5         1 0NN      -0.077400
     16 N2           2.2240     2.0100     0.2310 ns         1 0NN      -0.506900
     17 C20          6.5140     1.2050     0.2870 c5         1 0NN       0.177800
     18 C22          5.7290    -1.6170    -0.6180 ca         1 0NN      -0.086300
     19 C23          6.1590    -2.3650     0.4970 ca         1 0NN      -0.099000
     20 C24          7.0470    -3.4420     0.3280 ca         1 0NN      -0.115000
     21 C25          7.5110    -3.7770    -0.9560 ca         1 0NN      -0.111000
     22 C26          7.0870    -3.0340    -2.0700 ca         1 0NN      -0.115000
     23 C27          6.1980    -1.9570    -1.9010 ca         1 0NN      -0.099000
     24 N3           5.4130     0.8700    -0.6410 n3         1 0NN      -0.749600
     25 C5          -8.7180    -1.6670    -0.1090 ca         1 0NN      -0.089000
     26 C6          -7.4320    -1.3180     0.3320 ca         1 0NN      -0.118300
     27 C7          -6.7560    -1.6590     1.6330 c5         1 0NN       0.204900
     28 C8          -5.2830    -0.3420     0.2900 c5         1 0NN       0.227300
     29 C9          -5.2130     1.1030     0.8470 c6         1 0NN      -0.072900
     30 H1         -10.1260    -1.4810    -1.7460 ha         1 0NN       0.114000
     31 H2          -8.5970    -0.1060    -3.1620 ha         1 0NN       0.115000
     32 H3          -6.3140     0.4950    -2.3280 ha         1 0NN       0.119000
     33 H5          -3.8230     0.7260     2.4720 h1         1 0NN       0.036950
     34 H6          -3.8650     2.4060     1.9220 h1         1 0NN       0.036950
     35 H7          -4.0690     0.0120    -1.4880 hc         1 0NN       0.055450
     36 H8          -4.0300    -1.6530    -0.9200 hc         1 0NN       0.055450
     37 H9          -1.8870    -0.4860    -0.4990 h1         1 0NN       0.036950
     38 H10         -2.6230    -1.0110     1.0210 h1         1 0NN       0.036950
     39 H11         -1.5240     2.4910     1.7610 h1         1 0NN       0.033200
     40 H12         -1.2380     0.8070     2.2040 h1         1 0NN       0.033200
     41 H13          0.0230     0.4430     0.1000 hc         1 0NN       0.050200
     42 H14         -0.4090     2.0610    -0.4680 hc         1 0NN       0.050200
     43 H15          0.8770     3.0680     1.4330 h1         1 0NN       0.051200
     44 H16          1.2840     1.4350     2.0140 h1         1 0NN       0.051200
     45 H17          3.8940     2.1180    -1.5000 h1         1 0NN       0.059700
     46 H18          5.5400     3.7880    -1.5180 hc         1 0NN       0.051200
     47 H19          5.2430     4.0120     0.1980 hc         1 0NN       0.051200
     48 H20          7.5010     2.5210    -1.1540 hc         1 0NN       0.049200
     49 H21          7.4820     3.1790     0.4820 hc         1 0NN       0.049200
     50 H22          2.0730     1.8620    -0.7600 hn         1 0NN       0.313500
     51 H23          7.3550     0.5000     0.2200 h1         1 0NN       0.050700
     52 H24          6.1790     1.2400     1.3330 h1         1 0NN       0.050700
     53 H25          3.9430    -0.5680    -1.1590 h1         1 0NN       0.043200
     54 H26          4.3190    -0.5010     0.5640 h1         1 0NN       0.043200
     55 H27          5.8070    -2.1110     1.4950 ha         1 0NN       0.117500
     56 H28          7.3760    -4.0160     1.1910 ha         1 0NN       0.110500
     57 H29          8.1980    -4.6100    -1.0860 ha         1 0NN       0.110000
     58 H30          7.4460    -3.2910    -3.0640 ha         1 0NN       0.110500
     59 H31          5.8760    -1.3820    -2.7670 ha         1 0NN       0.117500
     60 H33         -9.3780    -2.2640     0.5150 ha         1 0NN       0.118000
     61 H34         -6.8390    -2.7240     1.8890 h1         1 0NN       0.053700
     62 H35         -7.1480    -1.0500     2.4590 h1         1 0NN       0.053700
     63 H36         -6.0500     1.2850     1.5330 hc         1 0NN       0.055450
     64 H37         -5.3230     1.8210     0.0240 hc         1 0NN       0.055450
     65 C13         -1.4290     1.4760     1.3530 c3         1 0NN       0.172800
     66 C21          4.7650    -0.4470    -0.4390 c3         1 0NN       0.234100
     67 O2           3.8220     2.3400     1.8330 o          1 0NN      -0.607100
@<TRIPOS>BOND
     1     1     2 ar  
     2     1    25 ar  
     3     1    30 1   
     4     2     3 ar  
     5     2    31 1   
     6     3     4 ar  
     7     3    32 1   
     8     4    26 ar  
     9     4    28 1   
    10     5    27 1   
    11     5    28 1   
    12     6     7 1   
    13     6     9 1   
    14     6    65 1   
    15     7    29 1   
    16     7    33 1   
    17     7    34 1   
    18     8     9 1   
    19     8    28 1   
    20     8    35 1   
    21     8    36 1   
    22     9    37 1   
    23     9    38 1   
    24    10    11 1   
    25    10    41 1   
    26    10    42 1   
    27    10    65 1   
    28    11    16 1   
    29    11    43 1   
    30    11    44 1   
    31    12    13 1   
    32    12    16 1   
    33    12    67 2   
    34    13    14 1   
    35    13    24 1   
    36    13    45 1   
    37    14    15 1   
    38    14    46 1   
    39    14    47 1   
    40    15    17 1   
    41    15    48 1   
    42    15    49 1   
    43    16    50 1   
    44    17    24 1   
    45    17    51 1   
    46    17    52 1   
    47    18    19 ar  
    48    18    23 ar  
    49    18    66 1   
    50    19    20 ar  
    51    19    55 1   
    52    20    21 ar  
    53    20    56 1   
    54    21    22 ar  
    55    21    57 1   
    56    22    23 ar  
    57    22    58 1   
    58    23    59 1   
    59    24    66 1   
    60    25    26 ar  
    61    25    60 1   
    62    26    27 1   
    63    27    61 1   
    64    27    62 1   
    65    28    29 1   
    66    29    63 1   
    67    29    64 1   
    68    39    65 1   
    69    40    65 1   
    70    53    66 1   
    71    54    66 1   
@<TRIPOS>SUBSTRUCTURE
     1 0NN         1 TEMP              0 ****  ****    0 ROOT
