@<TRIPOS>MOLECULE
0NN
   67    71     1     0     0
SMALL
bcc


@<TRIPOS>ATOM
      1 C4          -9.5440    -0.2290    -1.2310 ca         1 0NN      -0.124000
      2 C3          -8.6320     0.5530    -1.9330 ca         1 0NN      -0.128000
      3 C2          -7.3070     0.6400    -1.5160 ca         1 0NN      -0.101000
      4 C1          -6.9180    -0.0740    -0.3950 ca         1 0NN      -0.112300
      5 O1          -5.7500    -1.1920     1.2460 os         1 0NN      -0.414600
      6 N1          -2.8290     0.7780     0.6740 n3         1 0NN      -0.723600
      7 C10         -3.8630     1.1060     1.6420 c6         1 0NN       0.169800
      8 C11         -4.4360    -0.5220    -0.6510 c6         1 0NN      -0.072900
      9 C12         -3.0910    -0.5130     0.0600 c6         1 0NN       0.169800
     10 C14         -0.3740     0.8660     0.2700 c3         1 0NN      -0.097400
     11 C15          0.9620     1.0540     0.9700 c3         1 0NN       0.101000
     12 C16          3.3050     1.3820     0.3350 c          1 0NN       0.628100
     13 C17          4.2990     1.3840    -0.8250 c5         1 0NN       0.123500
     14 C18          4.7780     2.8280    -1.1040 c5         1 0NN      -0.070400
     15 C19          6.2780     2.8310    -0.7630 c5         1 0NN      -0.077400
     16 N2           2.0450     1.0640     0.0090 ns         1 0NN      -0.573900
     17 C20          6.4810     1.5600     0.0480 c5         1 0NN       0.177800
     18 C22          6.6130    -1.5040    -0.1670 ca         1 0NN      -0.086300
     19 C23          7.1080    -2.3100     0.8520 ca         1 0NN      -0.117000
     20 C24          8.2080    -3.1330     0.6400 ca         1 0NN      -0.133000
     21 C25          8.8340    -3.1510    -0.5980 ca         1 0NN      -0.129000
     22 C26          8.3500    -2.3430    -1.6220 ca         1 0NN      -0.133000
     23 C27          7.2500    -1.5270    -1.4070 ca         1 0NN      -0.117000
     24 N3           5.5200     0.6540    -0.5460 n3         1 0NN      -0.749600
     25 C5          -9.1480    -0.9370    -0.1010 ca         1 0NN      -0.107000
     26 C6          -7.8270    -0.8490     0.3030 ca         1 0NN      -0.118300
     27 C7          -7.1210    -1.4720     1.4660 c5         1 0NN       0.181700
     28 C8          -5.5800    -0.1470     0.2840 c5         1 0NN       0.204100
     29 C9          -5.2320     1.1690     0.9860 c6         1 0NN      -0.072900
     30 H1         -10.5710    -0.2880    -1.5690 ha         1 0NN       0.132000
     31 H2          -8.9550     1.0960    -2.8110 ha         1 0NN       0.133000
     32 H3          -6.6030     1.2550    -2.0640 ha         1 0NN       0.137000
     33 H5          -3.8830     0.3850     2.4780 h1         1 0NN       0.036950
     34 H6          -3.6310     2.0800     2.0800 h1         1 0NN       0.036950
     35 H7          -4.4090     0.1990    -1.4720 hc         1 0NN       0.055450
     36 H8          -4.6190    -1.5050    -1.0900 hc         1 0NN       0.055450
     37 H9          -2.3140    -0.7280    -0.6750 h1         1 0NN       0.036950
     38 H10         -3.0500    -1.3280     0.8040 h1         1 0NN       0.036950
     39 H11         -1.4660     1.7690     1.8660 h1         1 0NN       0.033200
     40 H12         -1.3540     0.0200     1.9970 h1         1 0NN       0.033200
     41 H13         -0.3480    -0.0640    -0.3050 hc         1 0NN       0.050200
     42 H14         -0.5380     1.6800    -0.4420 hc         1 0NN       0.050200
     43 H15          0.9620     1.9950     1.5270 h1         1 0NN       0.051200
     44 H16          1.1150     0.2540     1.7010 h1         1 0NN       0.051200
     45 H17          3.8160     0.9500    -1.7080 h1         1 0NN       0.059700
     46 H18          4.6010     3.0970    -2.1440 hc         1 0NN       0.051200
     47 H19          4.2360     3.5500    -0.4950 hc         1 0NN       0.051200
     48 H20          6.8750     2.7890    -1.6750 hc         1 0NN       0.049200
     49 H21          6.5790     3.7250    -0.2180 hc         1 0NN       0.049200
     50 H22          1.8390     0.8060    -0.9430 hn         1 0NN       0.313500
     51 H23          7.4950     1.1640    -0.0500 h1         1 0NN       0.050700
     52 H24          6.2980     1.7340     1.1170 h1         1 0NN       0.050700
     53 H25          4.5310    -1.1480    -0.4050 h1         1 0NN       0.043200
     54 H26          5.1760    -0.6020     1.1340 h1         1 0NN       0.043200
     55 H27          6.6310    -2.2940     1.8260 ha         1 0NN       0.135500
     56 H28          8.5790    -3.7540     1.4450 ha         1 0NN       0.128500
     57 H29          9.6940    -3.7860    -0.7650 ha         1 0NN       0.128000
     58 H30          8.8340    -2.3500    -2.5900 ha         1 0NN       0.128500
     59 H31          6.8820    -0.8910    -2.2020 ha         1 0NN       0.135500
     60 H33         -9.8610    -1.5470     0.4420 ha         1 0NN       0.136000
     61 H34         -7.2650    -2.5550     1.5240 h1         1 0NN       0.053700
     62 H35         -7.4690    -1.0450     2.4160 h1         1 0NN       0.053700
     63 H36         -5.9930     1.4090     1.7330 hc         1 0NN       0.055450
     64 H37         -5.2420     1.9740     0.2450 hc         1 0NN       0.055450
     65 C13         -1.5130     0.8460     1.2810 c3         1 0NN       0.172800
     66 C21          5.3910    -0.6480     0.0560 c3         1 0NN       0.234100
     67 O2           3.6380     1.6680     1.4790 o          1 0NN      -0.607100
@<TRIPOS>BOND
     1     1     2 ar  
     2     1    25 ar  
     3     1    30 1   
     4     2     3 ar  
     5     2    31 1   
     6     3     4 ar  
     7     3    32 1   
     8     4    26 ar  
     9     4    28 1   
    10     5    27 1   
    11     5    28 1   
    12     6     7 1   
    13     6     9 1   
    14     6    65 1   
    15     7    29 1   
    16     7    33 1   
    17     7    34 1   
    18     8     9 1   
    19     8    28 1   
    20     8    35 1   
    21     8    36 1   
    22     9    37 1   
    23     9    38 1   
    24    10    11 1   
    25    10    41 1   
    26    10    42 1   
    27    10    65 1   
    28    11    16 1   
    29    11    43 1   
    30    11    44 1   
    31    12    13 1   
    32    12    16 1   
    33    12    67 2   
    34    13    14 1   
    35    13    24 1   
    36    13    45 1   
    37    14    15 1   
    38    14    46 1   
    39    14    47 1   
    40    15    17 1   
    41    15    48 1   
    42    15    49 1   
    43    16    50 1   
    44    17    24 1   
    45    17    51 1   
    46    17    52 1   
    47    18    19 ar  
    48    18    23 ar  
    49    18    66 1   
    50    19    20 ar  
    51    19    55 1   
    52    20    21 ar  
    53    20    56 1   
    54    21    22 ar  
    55    21    57 1   
    56    22    23 ar  
    57    22    58 1   
    58    23    59 1   
    59    24    66 1   
    60    25    26 ar  
    61    25    60 1   
    62    26    27 1   
    63    27    61 1   
    64    27    62 1   
    65    28    29 1   
    66    29    63 1   
    67    29    64 1   
    68    39    65 1   
    69    40    65 1   
    70    53    66 1   
    71    54    66 1   
@<TRIPOS>SUBSTRUCTURE
     1 0NN         1 TEMP              0 ****  ****    0 ROOT
