@<TRIPOS>MOLECULE
0NP
   30    31     1     0     0
SMALL
No Charge or Current Charge


@<TRIPOS>ATOM
      1 C2          -1.9810    -0.5690     0.7290 c          1 0NP       0.633000
      2 O2          -1.1830    -1.0020     1.5430 o          1 0NP      -0.605000
      3 C6          -2.5910     0.5620    -1.3570 cc         1 0NP      -0.018400
      4 N19          4.8200     1.1440     0.5650 n2         1 0NP      -0.200400
      5 N18          3.7040     1.3170     0.0590 n1         1 0NP       0.245000
      6 C3           1.5940     0.3820     0.6420 c5         1 0NP       0.057500
      7 C4           1.8530    -0.8380    -0.2940 c5         1 0NP       0.196300
      8 C5           2.5760    -2.0440     0.3700 c3         1 0NP       0.168600
      9 O5           2.9110    -3.0540    -0.6030 oh         1 0NP      -0.697000
     10 O4           0.5040    -1.1970    -0.6600 os         1 0NP      -0.402000
     11 C7           0.5500     1.1900    -0.2020 c5         1 0NP       0.127300
     12 F2           1.1620     2.0450    -1.1310 f          1 0NP      -0.267000
     13 C1          -0.1960     0.0330    -0.9560 c5         1 0NP       0.334700
     14 N1          -1.6200     0.0220    -0.5060 n          1 0NP      -0.326000
     15 N3          -3.3110    -0.6000     1.0090 ns         1 0NP      -0.458500
     16 C9          -3.9160     0.4950    -0.9910 cd         1 0NP      -0.321200
     17 C8          -4.3440    -0.1260     0.2650 c          1 0NP       0.582200
     18 O1          -5.5050    -0.2130     0.6250 o          1 0NP      -0.470000
     19 H1          -2.2040     1.0030    -2.2740 h4         1 0NP       0.216000
     20 H2           5.4790     1.8300     0.1770 hn         1 0NP       0.533400
     21 H3           1.1510     0.0450     1.5890 h1         1 0NP       0.182700
     22 H4           2.3980    -0.5510    -1.2050 h1         1 0NP       0.085700
     23 H5           3.4880    -1.6800     0.8610 h1         1 0NP       0.045200
     24 H6           1.9240    -2.4590     1.1520 h1         1 0NP       0.045200
     25 H7           3.2900    -3.8210    -0.1110 ho         1 0NP       0.534000
     26 H8          -0.1190     1.7940     0.4270 h1         1 0NP       0.129700
     27 H9          -0.1880     0.2130    -2.0380 h2         1 0NP       0.104700
     28 H10         -3.5580    -1.0230     1.8880 hn         1 0NP       0.356500
     29 H11         -4.7160     0.8900    -1.6080 ha         1 0NP       0.243000
     30 N2           2.8240     1.1920     0.9290 n2         1 0NP      -0.056200
@<TRIPOS>BOND
     1     1     2 2   
     2     1    14 1   
     3     1    15 1   
     4     3    14 1   
     5     3    16 2   
     6     3    19 1   
     7     4     5 2   
     8     4    20 1   
     9     5    30 2   
    10     6     7 1   
    11     6    11 1   
    12     6    21 1   
    13     6    30 1   
    14     7     8 1   
    15     7    10 1   
    16     7    22 1   
    17     8     9 1   
    18     8    23 1   
    19     8    24 1   
    20     9    25 1   
    21    10    13 1   
    22    11    12 1   
    23    11    13 1   
    24    11    26 1   
    25    13    14 1   
    26    13    27 1   
    27    15    17 1   
    28    15    28 1   
    29    16    17 1   
    30    16    29 1   
    31    17    18 2   
@<TRIPOS>SUBSTRUCTURE
     1 0NP         1 TEMP              0 ****  ****    0 ROOT
