@<TRIPOS>MOLECULE
0NP
   30    31     1     0     0
SMALL
abcg2


@<TRIPOS>ATOM
      1 C2          -1.6950    -0.2410     0.8010 c          1 0NP       0.633000
      2 O2          -0.8160    -0.4260     1.6160 o          1 0NP      -0.605000
      3 C6          -2.4320     0.3230    -1.4080 cc         1 0NP      -0.018400
      4 N19          4.0660     2.7420     0.7790 n2         1 0NP      -0.200400
      5 N18          3.5890     1.6880     0.6340 n1         1 0NP       0.245000
      6 C3           1.8510     0.1030     0.5300 c5         1 0NP       0.057500
      7 C4           1.8200    -1.1120    -0.4070 c5         1 0NP       0.196300
      8 C5           2.0980    -2.4100     0.3120 c3         1 0NP       0.168600
      9 O5           2.1150    -3.4420    -0.6360 oh         1 0NP      -0.697000
     10 O4           0.5020    -1.1050    -0.9150 os         1 0NP      -0.402000
     11 C7           0.8720     1.0900    -0.0960 c5         1 0NP       0.127300
     12 F2           1.5760     1.9120    -0.9620 f          1 0NP      -0.267000
     13 C1          -0.0450     0.1810    -0.9350 c5         1 0NP       0.334700
     14 N1          -1.4220     0.1220    -0.5030 n          1 0NP      -0.326000
     15 N3          -3.0200    -0.3620     1.0990 ns         1 0NP      -0.458500
     16 C9          -3.7280     0.2050    -1.0910 cd         1 0NP      -0.321200
     17 C8          -4.1050    -0.1650     0.2540 c          1 0NP       0.582200
     18 O1          -5.2390    -0.3060     0.6640 o          1 0NP      -0.470000
     19 H1          -2.1150     0.5900    -2.4060 h4         1 0NP       0.216000
     20 H2           4.4140     3.2090    -0.0680 hn         1 0NP       0.533400
     21 H3           1.5530    -0.1630     1.5450 h1         1 0NP       0.182700
     22 H4           2.5460    -0.9700    -1.2180 h1         1 0NP       0.085700
     23 H5           3.0600    -2.3100     0.8320 h1         1 0NP       0.045200
     24 H6           1.3270    -2.5560     1.0800 h1         1 0NP       0.045200
     25 H7           2.2360    -4.2760    -0.1720 ho         1 0NP       0.534000
     26 H8           0.3570     1.7240     0.6240 h1         1 0NP       0.129700
     27 H9          -0.0670     0.5870    -1.9510 h2         1 0NP       0.104700
     28 H10         -3.2270    -0.6230     2.0570 hn         1 0NP       0.356500
     29 H11         -4.4930     0.3770    -1.8310 ha         1 0NP       0.243000
     30 N2           3.2180     0.5950     0.6670 n2         1 0NP      -0.056200
@<TRIPOS>BOND
     1     1     2 2   
     2     1    14 1   
     3     1    15 1   
     4     3    14 1   
     5     3    16 2   
     6     3    19 1   
     7     4     5 2   
     8     4    20 1   
     9     5    30 2   
    10     6     7 1   
    11     6    11 1   
    12     6    21 1   
    13     6    30 1   
    14     7     8 1   
    15     7    10 1   
    16     7    22 1   
    17     8     9 1   
    18     8    23 1   
    19     8    24 1   
    20     9    25 1   
    21    10    13 1   
    22    11    12 1   
    23    11    13 1   
    24    11    26 1   
    25    13    14 1   
    26    13    27 1   
    27    15    17 1   
    28    15    28 1   
    29    16    17 1   
    30    16    29 1   
    31    17    18 2   
@<TRIPOS>SUBSTRUCTURE
     1 0NP         1 TEMP              0 ****  ****    0 ROOT
