@<TRIPOS>MOLECULE
0NR
   76    82     1     0     0
SMALL
No Charge or Current Charge


@<TRIPOS>ATOM
      1 C1          -3.8400     0.5990    -2.1890 ca         1 0NR      -0.251600
      2 C2          -3.7780     0.9650    -3.5480 ca         1 0NR       0.011000
      3 C3          -4.2970     0.0730    -4.4910 ca         1 0NR      -0.212000
      4 C4          -4.8450    -1.1290    -4.0390 ca         1 0NR       0.399900
      5 N5          -4.9000    -1.4590    -2.7330 nb         1 0NR      -0.713000
      6 C6          -4.4060    -0.6100    -1.8070 ca         1 0NR       0.613900
      7 N7          -4.4910    -0.9080    -0.4510 na         1 0NR      -0.634900
      8 C8          -5.5200    -1.7460    -0.0160 ca         1 0NR       0.250000
      9 C9          -3.5770    -0.4360     0.5350 cc         1 0NR       0.137800
     10 C10         -3.1150     0.8590     0.2150 cd         1 0NR      -0.232400
     11 C11         -2.3830     1.7970     1.1820 c3         1 0NR       0.033100
     12 C12         -0.8670     1.6080     1.2740 ca         1 0NR      -0.058300
     13 C13         -3.2930     1.4610    -1.1380 c          1 0NR       0.598900
     14 O14         -2.9620     2.6090    -1.4150 o          1 0NR      -0.546100
     15 C15         -6.6310    -1.1920     0.6460 ca         1 0NR      -0.080500
     16 C16         -7.6720    -2.0200     1.1020 ca         1 0NR      -0.108000
     17 C17         -7.6060    -3.4090     0.8990 ca         1 0NR      -0.096000
     18 C18         -6.4980    -3.9700     0.2390 ca         1 0NR      -0.108000
     19 C19         -5.4580    -3.1400    -0.2170 ca         1 0NR      -0.080500
     20 C20         -3.2450    -1.1670     1.8410 c          1 0NR       0.600300
     21 O21         -3.7330    -2.2510     2.1420 o          1 0NR      -0.456000
     22 O22         -2.2730    -0.6010     2.6300 os         1 0NR      -0.423100
     23 C23         -1.8670    -1.2790     3.8340 c3         1 0NR       0.147900
     24 C24         -0.1710     2.1650     2.3620 ca         1 0NR      -0.106000
     25 C25          1.2190     2.0020     2.4840 ca         1 0NR      -0.076000
     26 C26          1.9500     1.2730     1.5200 ca         1 0NR      -0.152600
     27 C27          1.2470     0.7170     0.4230 ca         1 0NR      -0.076000
     28 C28         -0.1430     0.8860     0.3030 ca         1 0NR      -0.106000
     29 C29          3.4480     1.1110     1.6850 c          1 0NR       0.611700
     30 O30          4.0700     1.6580     2.5870 o          1 0NR      -0.607100
     31 N31          4.0820     0.3100     0.7630 ns         1 0NR      -0.501900
     32 C32          5.5250     0.0430     0.7050 c6         1 0NR       0.121700
     33 C33          6.2940     1.1840    -0.0350 c6         1 0NR      -0.069700
     34 C34          5.8590     1.2620    -1.5320 c6         1 0NR      -0.068900
     35 C35          6.1650    -0.0910    -2.2370 c6         1 0NR      -0.060700
     36 C36          5.3860    -1.2330    -1.5230 c6         1 0NR      -0.068900
     37 C37          5.8190    -1.3070    -0.0250 c6         1 0NR      -0.069700
     38 C38          7.6940    -0.3810    -2.1550 c6         1 0NR      -0.061400
     39 C39          8.1420    -0.4610    -0.6630 c6         1 0NR       0.167200
     40 C40          7.3480    -1.6000     0.0480 c6         1 0NR      -0.080900
     41 C41          7.8240     0.8970     0.0370 c6         1 0NR      -0.080900
     42 N42          9.5860    -0.7380    -0.5830 n8         1 0NR      -0.988200
     43 H1          -3.3350     1.9080    -3.8680 ha         1 0NR       0.145000
     44 H2          -4.2740     0.3020    -5.5530 ha         1 0NR       0.133000
     45 H3          -5.2590    -1.8520    -4.7420 h4         1 0NR       0.024100
     46 H4          -2.5800     2.8500     0.9470 hc         1 0NR       0.059700
     47 H5          -2.8280     1.7090     2.1800 hc         1 0NR       0.059700
     48 H6          -6.6840    -0.1180     0.8040 ha         1 0NR       0.130500
     49 H7          -8.5290    -1.5850     1.6140 ha         1 0NR       0.120000
     50 H8          -8.4100    -4.0500     1.2520 ha         1 0NR       0.117000
     51 H9          -6.4450    -5.0450     0.0820 ha         1 0NR       0.120000
     52 H10         -4.6000    -3.5740    -0.7220 ha         1 0NR       0.130500
     53 H11         -1.0920    -0.7020     4.3520 h1         1 0NR       0.055367
     54 H12         -2.7160    -1.4020     4.5200 h1         1 0NR       0.055367
     55 H13         -1.4560    -2.2710     3.6060 h1         1 0NR       0.055367
     56 H14         -0.7100     2.7260     3.1220 ha         1 0NR       0.123000
     57 H15          1.7270     2.4440     3.3390 ha         1 0NR       0.122000
     58 H16          1.7590     0.1540    -0.3530 ha         1 0NR       0.122000
     59 H17         -0.6490     0.4450    -0.5530 ha         1 0NR       0.123000
     60 H18          3.4960    -0.1140     0.0580 hn         1 0NR       0.315500
     61 H19          5.8950    -0.0290     1.7390 h1         1 0NR       0.067700
     62 H20          6.0850     2.1450     0.4560 hc         1 0NR       0.064200
     63 H21          4.7890     1.5000    -1.6130 hc         1 0NR       0.040700
     64 H22          6.3910     2.0800    -2.0380 hc         1 0NR       0.040700
     65 H23          5.8560    -0.0370    -3.2910 hc         1 0NR       0.051700
     66 H24          4.3040    -1.0670    -1.6110 hc         1 0NR       0.040700
     67 H25          5.5860    -2.1930    -2.0200 hc         1 0NR       0.040700
     68 H26          5.2730    -2.1190     0.4750 hc         1 0NR       0.064200
     69 H27          7.9230    -1.3230    -2.6750 hc         1 0NR       0.046700
     70 H28          8.2520     0.4060    -2.6810 hc         1 0NR       0.046700
     71 H29          7.6590    -1.6890     1.0980 hc         1 0NR       0.046200
     72 H30          7.5630    -2.5700    -0.4230 hc         1 0NR       0.046200
     73 H31          8.3800     1.7150    -0.4430 hc         1 0NR       0.046200
     74 H32          8.1490     0.8750     1.0870 hc         1 0NR       0.046200
     75 H33         10.0260    -0.0130    -0.0060 hn         1 0NR       0.392000
     76 H34          9.7230    -1.5960    -0.0380 hn         1 0NR       0.392000
@<TRIPOS>BOND
     1     1     2 ar  
     2     1     6 ar  
     3     1    13 1   
     4     2     3 ar  
     5     2    43 1   
     6     3     4 ar  
     7     3    44 1   
     8     4     5 ar  
     9     4    45 1   
    10     5     6 ar  
    11     6     7 1   
    12     7     8 1   
    13     7     9 1   
    14     8    15 ar  
    15     8    19 ar  
    16     9    10 2   
    17     9    20 1   
    18    10    11 1   
    19    10    13 1   
    20    11    12 1   
    21    11    46 1   
    22    11    47 1   
    23    12    24 ar  
    24    12    28 ar  
    25    13    14 2   
    26    15    16 ar  
    27    15    48 1   
    28    16    17 ar  
    29    16    49 1   
    30    17    18 ar  
    31    17    50 1   
    32    18    19 ar  
    33    18    51 1   
    34    19    52 1   
    35    20    21 2   
    36    20    22 1   
    37    22    23 1   
    38    23    53 1   
    39    23    54 1   
    40    23    55 1   
    41    24    25 ar  
    42    24    56 1   
    43    25    26 ar  
    44    25    57 1   
    45    26    27 ar  
    46    26    29 1   
    47    27    28 ar  
    48    27    58 1   
    49    28    59 1   
    50    29    30 2   
    51    29    31 1   
    52    31    32 1   
    53    31    60 1   
    54    32    33 1   
    55    32    37 1   
    56    32    61 1   
    57    33    34 1   
    58    33    41 1   
    59    33    62 1   
    60    34    35 1   
    61    34    63 1   
    62    34    64 1   
    63    35    36 1   
    64    35    38 1   
    65    35    65 1   
    66    36    37 1   
    67    36    66 1   
    68    36    67 1   
    69    37    40 1   
    70    37    68 1   
    71    38    39 1   
    72    38    69 1   
    73    38    70 1   
    74    39    40 1   
    75    39    41 1   
    76    39    42 1   
    77    40    71 1   
    78    40    72 1   
    79    41    73 1   
    80    41    74 1   
    81    42    75 1   
    82    42    76 1   
@<TRIPOS>SUBSTRUCTURE
     1 0NR         1 TEMP              0 ****  ****    0 ROOT
