@<TRIPOS>MOLECULE
0NR
   76    82     1     0     0
SMALL
abcg2


@<TRIPOS>ATOM
      1 C1          -4.0070     1.7580    -1.1730 ca         1 0NR      -0.251600
      2 C2          -4.2760     2.6770    -2.1910 ca         1 0NR       0.011000
      3 C3          -5.1100     2.3200    -3.2250 ca         1 0NR      -0.212000
      4 C4          -5.6600     1.0370    -3.2100 ca         1 0NR       0.399900
      5 N5          -5.4260     0.1510    -2.2640 nb         1 0NR      -0.713000
      6 C6          -4.6170     0.5020    -1.2700 ca         1 0NR       0.613900
      7 N7          -4.3920    -0.4380    -0.2910 na         1 0NR      -0.634900
      8 C8          -5.0340    -1.7180    -0.3690 ca         1 0NR       0.250000
      9 C9          -3.5790    -0.1460     0.7640 cc         1 0NR       0.137800
     10 C10         -2.9460     1.0430     0.9300 cd         1 0NR      -0.232400
     11 C11         -2.0310     1.3410     2.0840 c3         1 0NR       0.033100
     12 C12         -0.5880     1.4460     1.6520 ca         1 0NR      -0.058300
     13 C13         -3.1350     2.0970    -0.0480 c          1 0NR       0.598900
     14 O14         -2.6110     3.2000     0.0620 o          1 0NR      -0.546100
     15 C15         -6.2190    -1.9270     0.3190 ca         1 0NR      -0.080500
     16 C16         -6.8210    -3.1770     0.2680 ca         1 0NR      -0.108000
     17 C17         -6.2410    -4.1980    -0.4720 ca         1 0NR      -0.096000
     18 C18         -5.0570    -3.9740    -1.1640 ca         1 0NR      -0.108000
     19 C19         -4.4470    -2.7300    -1.1130 ca         1 0NR      -0.080500
     20 C20         -3.3920    -1.2720     1.7470 c          1 0NR       0.600300
     21 O21         -2.5790    -2.1430     1.6000 o          1 0NR      -0.456000
     22 O22         -4.2200    -1.1520     2.7590 os         1 0NR      -0.423100
     23 C23         -4.1920    -2.1770     3.7630 c3         1 0NR       0.147900
     24 C24          0.1100     2.6440     1.7630 ca         1 0NR      -0.106000
     25 C25          1.4350     2.7340     1.3680 ca         1 0NR      -0.076000
     26 C26          2.1020     1.6190     0.8680 ca         1 0NR      -0.152600
     27 C27          1.4030     0.4190     0.7470 ca         1 0NR      -0.076000
     28 C28          0.0740     0.3380     1.1290 ca         1 0NR      -0.106000
     29 C29          3.5270     1.7700     0.4460 c          1 0NR       0.611700
     30 O30          3.9570     2.8430     0.0410 o          1 0NR      -0.607100
     31 N31          4.2880     0.6680     0.5480 ns         1 0NR      -0.501900
     32 C32          5.6890     0.6310     0.1720 c6         1 0NR       0.121700
     33 C33          5.8930     0.5190    -1.3470 c6         1 0NR      -0.069700
     34 C34          5.3510    -0.8140    -1.8610 c6         1 0NR      -0.068900
     35 C35          6.0850    -1.9690    -1.1760 c6         1 0NR      -0.060700
     36 C36          5.8590    -1.8850     0.3340 c6         1 0NR      -0.068900
     37 C37          6.3910    -0.5470     0.8580 c6         1 0NR      -0.069700
     38 C38          7.5850    -1.8730    -1.4630 c6         1 0NR      -0.061400
     39 C39          8.1460    -0.5450    -0.9460 c6         1 0NR       0.167200
     40 C40          7.8900    -0.4610     0.5620 c6         1 0NR      -0.080900
     41 C41          7.3930     0.6060    -1.6290 c6         1 0NR      -0.080900
     42 N42          9.5840    -0.5150    -1.1810 n8         1 0NR      -0.988200
     43 H1          -3.8260     3.6600    -2.1530 ha         1 0NR       0.145000
     44 H2          -5.3430     3.0050    -4.0280 ha         1 0NR       0.133000
     45 H3          -6.3230     0.7210    -4.0080 h4         1 0NR       0.024100
     46 H4          -2.3420     2.2800     2.5450 hc         1 0NR       0.059700
     47 H5          -2.1150     0.5860     2.8680 hc         1 0NR       0.059700
     48 H6          -6.6680    -1.1230     0.8870 ha         1 0NR       0.130500
     49 H7          -7.7440    -3.3490     0.8040 ha         1 0NR       0.120000
     50 H8          -6.7120    -5.1720    -0.5100 ha         1 0NR       0.117000
     51 H9          -4.6050    -4.7690    -1.7420 ha         1 0NR       0.120000
     52 H10         -3.5220    -2.5460    -1.6420 ha         1 0NR       0.130500
     53 H11         -4.9250    -1.8810     4.5060 h1         1 0NR       0.055367
     54 H12         -4.4690    -3.1410     3.3370 h1         1 0NR       0.055367
     55 H13         -3.2080    -2.2490     4.2240 h1         1 0NR       0.055367
     56 H14         -0.3880     3.5200     2.1580 ha         1 0NR       0.123000
     57 H15          1.9560     3.6790     1.4540 ha         1 0NR       0.122000
     58 H16          1.8760    -0.4600     0.3260 ha         1 0NR       0.122000
     59 H17         -0.4510    -0.6020     1.0110 ha         1 0NR       0.123000
     60 H18          3.9030    -0.1340     1.0180 hn         1 0NR       0.315500
     61 H19          6.1540     1.5600     0.5170 h1         1 0NR       0.067700
     62 H20          5.3800     1.3490    -1.8400 hc         1 0NR       0.064200
     63 H21          4.2740    -0.8870    -1.6800 hc         1 0NR       0.040700
     64 H22          5.4860    -0.8700    -2.9450 hc         1 0NR       0.040700
     65 H23          5.7020    -2.9220    -1.5510 hc         1 0NR       0.051700
     66 H24          4.7980    -2.0200     0.5670 hc         1 0NR       0.040700
     67 H25          6.3810    -2.7030     0.8410 hc         1 0NR       0.040700
     68 H26          6.2320    -0.4780     1.9390 hc         1 0NR       0.064200
     69 H27          8.1150    -2.7020    -0.9820 hc         1 0NR       0.046700
     70 H28          7.7690    -1.9600    -2.5400 hc         1 0NR       0.046700
     71 H29          8.2990     0.4770     0.9550 hc         1 0NR       0.046200
     72 H30          8.4150    -1.2770     1.0680 hc         1 0NR       0.046200
     73 H31          7.5720     0.5750    -2.7090 hc         1 0NR       0.046200
     74 H32          7.7910     1.5630    -1.2700 hc         1 0NR       0.046200
     75 H33          9.7590    -0.5520    -2.1800 hn         1 0NR       0.392000
     76 H34          9.9540     0.3810    -0.8780 hn         1 0NR       0.392000
@<TRIPOS>BOND
     1     1     2 ar  
     2     1     6 ar  
     3     1    13 1   
     4     2     3 ar  
     5     2    43 1   
     6     3     4 ar  
     7     3    44 1   
     8     4     5 ar  
     9     4    45 1   
    10     5     6 ar  
    11     6     7 1   
    12     7     8 1   
    13     7     9 1   
    14     8    15 ar  
    15     8    19 ar  
    16     9    10 2   
    17     9    20 1   
    18    10    11 1   
    19    10    13 1   
    20    11    12 1   
    21    11    46 1   
    22    11    47 1   
    23    12    24 ar  
    24    12    28 ar  
    25    13    14 2   
    26    15    16 ar  
    27    15    48 1   
    28    16    17 ar  
    29    16    49 1   
    30    17    18 ar  
    31    17    50 1   
    32    18    19 ar  
    33    18    51 1   
    34    19    52 1   
    35    20    21 2   
    36    20    22 1   
    37    22    23 1   
    38    23    53 1   
    39    23    54 1   
    40    23    55 1   
    41    24    25 ar  
    42    24    56 1   
    43    25    26 ar  
    44    25    57 1   
    45    26    27 ar  
    46    26    29 1   
    47    27    28 ar  
    48    27    58 1   
    49    28    59 1   
    50    29    30 2   
    51    29    31 1   
    52    31    32 1   
    53    31    60 1   
    54    32    33 1   
    55    32    37 1   
    56    32    61 1   
    57    33    34 1   
    58    33    41 1   
    59    33    62 1   
    60    34    35 1   
    61    34    63 1   
    62    34    64 1   
    63    35    36 1   
    64    35    38 1   
    65    35    65 1   
    66    36    37 1   
    67    36    66 1   
    68    36    67 1   
    69    37    40 1   
    70    37    68 1   
    71    38    39 1   
    72    38    69 1   
    73    38    70 1   
    74    39    40 1   
    75    39    41 1   
    76    39    42 1   
    77    40    71 1   
    78    40    72 1   
    79    41    73 1   
    80    41    74 1   
    81    42    75 1   
    82    42    76 1   
@<TRIPOS>SUBSTRUCTURE
     1 0NR         1 TEMP              0 ****  ****    0 ROOT
