@<TRIPOS>MOLECULE
0NS
   41    43     1     0     0
SMALL
bcc


@<TRIPOS>ATOM
      1 CAX         -2.7670     2.2840     2.2510 c3         1 0NS       0.131700
      2 OAW         -2.7110     1.1630     1.3820 os         1 0NS      -0.339900
      3 CAE         -2.4750     1.3570     0.0810 ca         1 0NS       0.220100
      4 CAF         -2.2960     2.6050    -0.5110 ca         1 0NS      -0.235000
      5 CAA         -2.0290     2.6920    -1.8700 ca         1 0NS      -0.036000
      6 CAB         -1.9290     1.5550    -2.6570 ca         1 0NS      -0.183000
      7 CAC         -2.1010     0.3090    -2.0760 ca         1 0NS       0.013000
      8 CAD         -2.3780     0.2100    -0.7200 ca         1 0NS      -0.337500
      9 SAT         -2.6140    -1.3900     0.0010 sy         1 0NS       1.296200
     10 OAU         -3.8930    -1.4410     0.6840 o          1 0NS      -0.601300
     11 OAV         -2.3160    -2.3700    -1.0290 o          1 0NS      -0.601300
     12 NAG         -1.4560    -1.5630     1.1820 nu         1 0NS      -0.664500
     13 CAH         -0.0920    -1.4490     0.7990 ca         1 0NS       0.061600
     14 CAM          0.6080    -0.2660     1.0100 ca         1 0NS      -0.103000
     15 CAL          1.9450    -0.1690     0.6670 ca         1 0NS      -0.143300
     16 CAQ          2.7730     1.0440     0.9510 c6         1 0NS       0.157300
     17 NAP          3.8410     1.1830    -0.0250 n          1 0NS      -0.469800
     18 CAS          4.4780     2.4820    -0.0780 c3         1 0NS       0.090300
     19 CAO          4.5340     0.1010    -0.4620 c          1 0NS       0.820500
     20 OAR          5.6280     0.1650    -1.0040 o          1 0NS      -0.652500
     21 NAN          3.9090    -1.1130    -0.2870 ns         1 0NS      -0.474100
     22 CAK          2.5770    -1.2510     0.0630 ca         1 0NS       0.097600
     23 CAJ          1.8790    -2.4330    -0.1630 ca         1 0NS      -0.174000
     24 CAI          0.5530    -2.5340     0.2180 ca         1 0NS      -0.052000
     25 H1          -1.8290     2.8430     2.2470 h1         1 0NS       0.050033
     26 H2          -3.5870     2.9550     1.9880 h1         1 0NS       0.050033
     27 H3          -2.9390     1.8860     3.2470 h1         1 0NS       0.050033
     28 H4          -2.3630     3.5110     0.0750 ha         1 0NS       0.138000
     29 H5          -1.8940     3.6690    -2.3130 ha         1 0NS       0.134000
     30 H6          -1.7190     1.6340    -3.7150 ha         1 0NS       0.143000
     31 H7          -2.0210    -0.5840    -2.6790 ha         1 0NS       0.165000
     32 H8          -1.7050    -1.0480     2.0200 hn         1 0NS       0.436800
     33 H9           0.1140     0.5830     1.4690 ha         1 0NS       0.132000
     34 H10          2.1530     1.9400     0.9070 h1         1 0NS       0.048700
     35 H11          3.1830     0.9960     1.9690 h1         1 0NS       0.048700
     36 H12          5.1170     2.6620     0.7910 h1         1 0NS       0.045367
     37 H13          5.0800     2.5760    -0.9760 h1         1 0NS       0.045367
     38 H14          3.7070     3.2500    -0.1010 h1         1 0NS       0.045367
     39 H15          4.3790    -1.9030    -0.7030 hn         1 0NS       0.337500
     40 H16          2.3750    -3.2770    -0.6260 ha         1 0NS       0.145000
     41 H17          0.0200    -3.4620     0.0650 ha         1 0NS       0.164000
@<TRIPOS>BOND
     1     1     2 1   
     2     1    25 1   
     3     1    26 1   
     4     1    27 1   
     5     2     3 1   
     6     3     4 ar  
     7     3     8 ar  
     8     4     5 ar  
     9     4    28 1   
    10     5     6 ar  
    11     5    29 1   
    12     6     7 ar  
    13     6    30 1   
    14     7     8 ar  
    15     7    31 1   
    16     8     9 1   
    17     9    10 2   
    18     9    11 2   
    19     9    12 1   
    20    12    13 1   
    21    12    32 1   
    22    13    14 ar  
    23    13    24 ar  
    24    14    15 ar  
    25    14    33 1   
    26    15    16 1   
    27    15    22 ar  
    28    16    17 1   
    29    16    34 1   
    30    16    35 1   
    31    17    18 1   
    32    17    19 1   
    33    18    36 1   
    34    18    37 1   
    35    18    38 1   
    36    19    20 2   
    37    19    21 1   
    38    21    22 1   
    39    21    39 1   
    40    22    23 ar  
    41    23    24 ar  
    42    23    40 1   
    43    24    41 1   
@<TRIPOS>SUBSTRUCTURE
     1 0NS         1 TEMP              0 ****  ****    0 ROOT
