@<TRIPOS>MOLECULE
0NS
   41    43     1     0     0
SMALL
No Charge or Current Charge


@<TRIPOS>ATOM
      1 CAX         -2.5190     2.8850     1.4740 c3         1 0NS       0.154900
      2 OAW         -2.6250     1.5170     1.0400 os         1 0NS      -0.363100
      3 CAE         -2.8030     1.1690    -0.2850 ca         1 0NS       0.220100
      4 CAF         -2.9090     2.1480    -1.2980 ca         1 0NS      -0.217000
      5 CAA         -3.0700     1.7690    -2.6410 ca         1 0NS      -0.018000
      6 CAB         -3.1240     0.4100    -2.9820 ca         1 0NS      -0.165000
      7 CAC         -3.0190    -0.5720    -1.9850 ca         1 0NS       0.031000
      8 CAD         -2.8630    -0.1940    -0.6350 ca         1 0NS      -0.337500
      9 SAT         -2.7170    -1.4670     0.6160 sy         1 0NS       1.154600
     10 OAU         -3.6500    -1.2000     1.7120 o          1 0NS      -0.530500
     11 OAV         -2.6120    -2.7910    -0.0040 o          1 0NS      -0.530500
     12 NAG         -1.2230    -1.2070     1.3420 nu         1 0NS      -0.858100
     13 CAH          0.0230    -1.0170     0.7400 ca         1 0NS       0.200000
     14 CAM          0.9830    -0.2390     1.4160 ca         1 0NS      -0.085000
     15 CAL          2.2500    -0.0040     0.8480 ca         1 0NS      -0.143300
     16 CAQ          3.2840     0.8470     1.5880 c6         1 0NS       0.157300
     17 NAP          4.5780     1.0150     0.8750 n          1 0NS      -0.402800
     18 CAS          5.6180     1.8290     1.5380 c3         1 0NS       0.090300
     19 CAO          4.8450     0.4380    -0.3880 c          1 0NS       0.611000
     20 OAR          5.9170     0.5890    -0.9580 o          1 0NS      -0.577000
     21 NAN          3.8290    -0.3060    -0.9460 ns         1 0NS      -0.148000
     22 CAK          2.5610    -0.5550    -0.4020 ca         1 0NS       0.005000
     23 CAJ          1.6190    -1.3370    -1.0870 ca         1 0NS      -0.156000
     24 CAI          0.3530    -1.5690    -0.5180 ca         1 0NS      -0.034000
     25 H1          -1.6620     3.3800     1.0000 h1         1 0NS       0.050033
     26 H2          -3.4300     3.4450     1.2290 h1         1 0NS       0.050033
     27 H3          -2.3770     2.9290     2.5610 h1         1 0NS       0.050033
     28 H4          -2.8660     3.2080    -1.0670 ha         1 0NS       0.120000
     29 H5          -3.1510     2.5280    -3.4160 ha         1 0NS       0.116000
     30 H6          -3.2460     0.1160    -4.0220 ha         1 0NS       0.125000
     31 H7          -3.0630    -1.6230    -2.2710 ha         1 0NS       0.147000
     32 H8          -1.4400    -0.5970     2.1180 hn         1 0NS       0.492000
     33 H9           0.7420     0.1900     2.3850 ha         1 0NS       0.114000
     34 H10          2.8530     1.8410     1.7740 h1         1 0NS       0.048700
     35 H11          3.4800     0.3880     2.5680 h1         1 0NS       0.048700
     36 H12          6.5140     1.2180     1.7080 h1         1 0NS       0.045367
     37 H13          5.8800     2.6850     0.9030 h1         1 0NS       0.045367
     38 H14          5.2550     2.2020     2.5050 h1         1 0NS       0.045367
     39 H15          4.0220    -0.7180    -1.8490 hn         1 0NS       0.171000
     40 H16          1.8620    -1.7660    -2.0560 ha         1 0NS       0.127000
     41 H17         -0.3600    -2.1800    -1.0600 ha         1 0NS       0.146000
@<TRIPOS>BOND
     1     1     2 1   
     2     1    25 1   
     3     1    26 1   
     4     1    27 1   
     5     2     3 1   
     6     3     4 ar  
     7     3     8 ar  
     8     4     5 ar  
     9     4    28 1   
    10     5     6 ar  
    11     5    29 1   
    12     6     7 ar  
    13     6    30 1   
    14     7     8 ar  
    15     7    31 1   
    16     8     9 1   
    17     9    10 2   
    18     9    11 2   
    19     9    12 1   
    20    12    13 1   
    21    12    32 1   
    22    13    14 ar  
    23    13    24 ar  
    24    14    15 ar  
    25    14    33 1   
    26    15    16 1   
    27    15    22 ar  
    28    16    17 1   
    29    16    34 1   
    30    16    35 1   
    31    17    18 1   
    32    17    19 1   
    33    18    36 1   
    34    18    37 1   
    35    18    38 1   
    36    19    20 2   
    37    19    21 1   
    38    21    22 1   
    39    21    39 1   
    40    22    23 ar  
    41    23    24 ar  
    42    23    40 1   
    43    24    41 1   
@<TRIPOS>SUBSTRUCTURE
     1 0NS         1 TEMP              0 ****  ****    0 ROOT
