@<TRIPOS>MOLECULE
0NT
   56    60     1     0     0
SMALL
No Charge or Current Charge


@<TRIPOS>ATOM
      1 C7          -4.3480     2.1140    -0.8360 c5         1 0NT      -0.086400
      2 C2          -5.1920    -1.5270    -0.2290 c3         1 0NT       0.203500
      3 C10         -2.8480     0.8080     0.7850 c          1 0NT       0.609100
      4 C6          -5.8560     2.1400    -0.4910 c5         1 0NT      -0.086400
      5 C1          -4.0510    -2.2290     0.5460 c3         1 0NT      -0.093100
      6 C3          -6.5480    -2.1640     0.1610 c3         1 0NT      -0.093100
      7 N4          -5.1940    -0.0440    -0.0720 n3         1 0NT      -0.728600
      8 C5          -6.2390     0.6880    -0.8290 c5         1 0NT       0.182800
      9 C8          -3.8990     0.6730    -0.4000 c5         1 0NT       0.115500
     10 O11         -3.0870     0.5820     1.9680 o          1 0NT      -0.568100
     11 N12         -1.5550     1.2540     0.3740 n          1 0NT      -0.429800
     12 C13         -1.0790     1.3860    -1.0350 c6         1 0NT       0.100500
     13 C14         -0.0850     0.2490    -1.3610 c6         1 0NT      -0.111900
     14 C15          1.1120     0.2840    -0.3700 c6         1 0NT       0.091300
     15 C16          0.6010     0.2430     1.0950 c6         1 0NT      -0.111900
     16 C17         -0.4360     1.3630     1.3470 c6         1 0NT       0.100500
     17 N18          2.0850    -0.8060    -0.6150 na         1 0NT      -0.167600
     18 C19          1.8590    -2.0700    -1.1740 cc         1 0NT       0.394700
     19 N20          3.0080    -2.7770    -1.2570 nd         1 0NT      -0.548100
     20 C21          3.9730    -1.9180    -0.7160 ca         1 0NT      -0.025600
     21 C22          3.4200    -0.7310    -0.3220 ca         1 0NT      -0.010200
     22 C23          4.2460     0.2400     0.2640 ca         1 0NT      -0.132800
     23 C24          3.9850     1.5490     0.7950 cc         1 0NT      -0.231200
     24 C25          5.1970     2.0430     1.2480 cd         1 0NT      -0.169100
     25 N26          6.1990     1.0690     1.0090 na         1 0NT      -0.306400
     26 C28          5.5970    -0.0240     0.4130 ca         1 0NT       0.359500
     27 N29          6.1760    -1.1840     0.0250 nb         1 0NT      -0.694000
     28 C30          5.3640    -2.1290    -0.5360 ca         1 0NT       0.428900
     29 H1          -4.1920     2.2560    -1.9120 hc         1 0NT       0.049200
     30 H2          -3.7990     2.9150    -0.3270 hc         1 0NT       0.049200
     31 H3          -5.0320    -1.7570    -1.2920 h1         1 0NT       0.008700
     32 H4          -6.0300     2.3650     0.5680 hc         1 0NT       0.059200
     33 H5          -6.4140     2.8720    -1.0850 hc         1 0NT       0.059200
     34 H6          -4.1190    -2.0130     1.6190 hc         1 0NT       0.039867
     35 H7          -4.1070    -3.3160     0.4140 hc         1 0NT       0.039867
     36 H8          -3.0670    -1.9110     0.1840 hc         1 0NT       0.039867
     37 H10         -6.8130    -1.9090     1.1950 hc         1 0NT       0.039867
     38 H11         -7.3540    -1.8240    -0.4990 hc         1 0NT       0.039867
     39 H12         -6.5010    -3.2560     0.0790 hc         1 0NT       0.039867
     40 H14         -7.2560     0.4540    -0.4870 h1         1 0NT       0.037200
     41 H15         -6.1780     0.4900    -1.9090 h1         1 0NT       0.037200
     42 H9          -3.4120     0.1560    -1.2370 h1         1 0NT       0.042700
     43 H16         -1.8910     1.3940    -1.7700 h1         1 0NT       0.057450
     44 H17         -0.5660     2.3530    -1.1420 h1         1 0NT       0.057450
     45 H18         -0.6150    -0.7110    -1.3000 hc         1 0NT       0.062450
     46 H19          0.2750     0.3550    -2.3930 hc         1 0NT       0.062450
     47 H20          1.6280     1.2370    -0.5380 h1         1 0NT       0.072700
     48 H21          0.1400    -0.7330     1.3040 hc         1 0NT       0.062450
     49 H22          1.4390     0.3490     1.7970 hc         1 0NT       0.062450
     50 H23          0.0460     2.3440     1.2320 h1         1 0NT       0.057450
     51 H24         -0.7990     1.3040     2.3820 h1         1 0NT       0.057450
     52 H25          0.8810    -2.4050    -1.4930 h5         1 0NT       0.063800
     53 H26          3.0380     2.0770     0.8610 ha         1 0NT       0.200000
     54 H28          5.4190     2.9990     1.7200 h4         1 0NT       0.215000
     55 H27          7.1850     1.1390     1.2310 hn         1 0NT       0.361000
     56 H29          5.8330    -3.0640    -0.8410 h4         1 0NT       0.035100
@<TRIPOS>BOND
     1     1     4 1   
     2     1     9 1   
     3     1    29 1   
     4     1    30 1   
     5     2     5 1   
     6     2     6 1   
     7     2     7 1   
     8     2    31 1   
     9     3     9 1   
    10     3    10 2   
    11     3    11 1   
    12     4     8 1   
    13     4    32 1   
    14     4    33 1   
    15     5    34 1   
    16     5    35 1   
    17     5    36 1   
    18     6    37 1   
    19     6    38 1   
    20     6    39 1   
    21     7     8 1   
    22     7     9 1   
    23     8    40 1   
    24     8    41 1   
    25     9    42 1   
    26    11    12 1   
    27    11    16 1   
    28    12    13 1   
    29    12    43 1   
    30    12    44 1   
    31    13    14 1   
    32    13    45 1   
    33    13    46 1   
    34    14    15 1   
    35    14    17 1   
    36    14    47 1   
    37    15    16 1   
    38    15    48 1   
    39    15    49 1   
    40    16    50 1   
    41    16    51 1   
    42    17    18 1   
    43    17    21 1   
    44    18    19 2   
    45    18    52 1   
    46    19    20 1   
    47    20    21 ar  
    48    20    28 ar  
    49    21    22 ar  
    50    22    23 1   
    51    22    26 ar  
    52    23    24 2   
    53    23    53 1   
    54    24    25 1   
    55    24    54 1   
    56    25    26 1   
    57    25    55 1   
    58    26    27 ar  
    59    27    28 ar  
    60    28    56 1   
@<TRIPOS>SUBSTRUCTURE
     1 0NT         1 TEMP              0 ****  ****    0 ROOT
