@<TRIPOS>MOLECULE
0NT
   56    60     1     0     0
SMALL
bcc


@<TRIPOS>ATOM
      1 C7          -4.2450     2.1240    -0.8810 c5         1 0NT      -0.086400
      2 C2          -5.1640    -1.3900    -0.6640 c3         1 0NT       0.203500
      3 C10         -3.0170     0.6990     0.8020 c          1 0NT       0.676100
      4 C6          -5.7110     2.2430    -0.4850 c5         1 0NT      -0.086400
      5 C1          -4.0600    -2.2000     0.0100 c3         1 0NT      -0.093100
      6 C3          -6.5140    -2.0300    -0.3620 c3         1 0NT      -0.093100
      7 N4          -5.1380    -0.0020    -0.2310 n3         1 0NT      -0.728600
      8 C5          -6.2160     0.8350    -0.7350 c5         1 0NT       0.182800
      9 C8          -3.8770     0.6800    -0.4640 c5         1 0NT       0.115500
     10 O11         -3.5170     0.5400     1.9040 o          1 0NT      -0.568100
     11 N12         -1.6920     0.9380     0.6450 n          1 0NT      -0.496800
     12 C13         -1.0130     1.2210    -0.6060 c6         1 0NT       0.100500
     13 C14          0.0660     0.1800    -0.8820 c6         1 0NT      -0.111900
     14 C15          1.0360     0.1140     0.2920 c6         1 0NT       0.062000
     15 C16          0.2910    -0.1270     1.6010 c6         1 0NT      -0.111900
     16 C17         -0.7930     0.9290     1.7850 c6         1 0NT       0.100500
     17 N18          2.0770    -0.8800     0.0720 na         1 0NT      -0.138300
     18 C19          1.8910    -2.2260    -0.0750 cc         1 0NT       0.394700
     19 N20          2.9910    -2.8860    -0.2740 nd         1 0NT      -0.548100
     20 C21          3.9790    -1.9290    -0.2610 ca         1 0NT      -0.090900
     21 C22          3.4180    -0.6650    -0.0440 ca         1 0NT      -0.010200
     22 C23          4.2470     0.4620     0.0120 ca         1 0NT      -0.198100
     23 C24          4.1520     1.8710     0.2050 cc         1 0NT      -0.181200
     24 C25          5.4290     2.3560     0.1340 cd         1 0NT      -0.119100
     25 N26          6.3010     1.3340    -0.0910 na         1 0NT      -0.256100
     26 C28          5.6150     0.1590    -0.1710 ca         1 0NT       0.424800
     27 N29          6.1780    -1.0340    -0.3830 nb         1 0NT      -0.694000
     28 C30          5.3650    -2.0690    -0.4280 ca         1 0NT       0.494200
     29 H1          -4.1360     2.2280    -1.9620 hc         1 0NT       0.049200
     30 H2          -3.6110     2.8830    -0.4210 hc         1 0NT       0.049200
     31 H3          -5.0020    -1.4460    -1.7570 h1         1 0NT       0.008700
     32 H4          -5.8090     2.4980     0.5730 hc         1 0NT       0.059200
     33 H5          -6.2480     2.9940    -1.0640 hc         1 0NT       0.059200
     34 H6          -4.1620    -2.1610     1.0950 hc         1 0NT       0.039867
     35 H7          -4.1230    -3.2420    -0.3020 hc         1 0NT       0.039867
     36 H8          -3.0590    -1.8490    -0.2490 hc         1 0NT       0.039867
     37 H10         -6.7390    -1.9660     0.7050 hc         1 0NT       0.039867
     38 H11         -7.3320    -1.5630    -0.9110 hc         1 0NT       0.039867
     39 H12         -6.4970    -3.0840    -0.6400 hc         1 0NT       0.039867
     40 H14         -7.1540     0.6280    -0.2170 h1         1 0NT       0.037200
     41 H15         -6.3960     0.6860    -1.8130 h1         1 0NT       0.037200
     42 H9          -3.3270     0.1960    -1.2800 h1         1 0NT       0.042700
     43 H16         -1.7070     1.2610    -1.4390 h1         1 0NT       0.057450
     44 H17         -0.5580     2.2160    -0.5400 h1         1 0NT       0.057450
     45 H18         -0.4080    -0.7940    -1.0400 hc         1 0NT       0.062450
     46 H19          0.5980     0.4400    -1.7990 hc         1 0NT       0.062450
     47 H20          1.5480     1.0750     0.3630 h1         1 0NT       0.072700
     48 H21         -0.1690    -1.1200     1.5960 hc         1 0NT       0.062450
     49 H22          0.9850    -0.0900     2.4420 hc         1 0NT       0.062450
     50 H23         -0.3330     1.9180     1.8850 h1         1 0NT       0.057450
     51 H24         -1.3570     0.7410     2.6930 h1         1 0NT       0.057450
     52 H25          0.9070    -2.6690    -0.0220 h5         1 0NT       0.063800
     53 H26          3.2700     2.4650     0.3760 ha         1 0NT       0.150000
     54 H28          5.7820     3.3700     0.2300 h4         1 0NT       0.165000
     55 H27          7.3000     1.4270    -0.1790 hn         1 0NT       0.310700
     56 H29          5.8020    -3.0460    -0.6000 h4         1 0NT       0.035100
@<TRIPOS>BOND
     1     1     4 1   
     2     1     9 1   
     3     1    29 1   
     4     1    30 1   
     5     2     5 1   
     6     2     6 1   
     7     2     7 1   
     8     2    31 1   
     9     3     9 1   
    10     3    10 2   
    11     3    11 1   
    12     4     8 1   
    13     4    32 1   
    14     4    33 1   
    15     5    34 1   
    16     5    35 1   
    17     5    36 1   
    18     6    37 1   
    19     6    38 1   
    20     6    39 1   
    21     7     8 1   
    22     7     9 1   
    23     8    40 1   
    24     8    41 1   
    25     9    42 1   
    26    11    12 1   
    27    11    16 1   
    28    12    13 1   
    29    12    43 1   
    30    12    44 1   
    31    13    14 1   
    32    13    45 1   
    33    13    46 1   
    34    14    15 1   
    35    14    17 1   
    36    14    47 1   
    37    15    16 1   
    38    15    48 1   
    39    15    49 1   
    40    16    50 1   
    41    16    51 1   
    42    17    18 1   
    43    17    21 1   
    44    18    19 2   
    45    18    52 1   
    46    19    20 1   
    47    20    21 ar  
    48    20    28 ar  
    49    21    22 ar  
    50    22    23 1   
    51    22    26 ar  
    52    23    24 2   
    53    23    53 1   
    54    24    25 1   
    55    24    54 1   
    56    25    26 1   
    57    25    55 1   
    58    26    27 ar  
    59    27    28 ar  
    60    28    56 1   
@<TRIPOS>SUBSTRUCTURE
     1 0NT         1 TEMP              0 ****  ****    0 ROOT
