@<TRIPOS>MOLECULE
0NU
   39    42     1     0     0
SMALL
bcc


@<TRIPOS>ATOM
      1 N5          -5.1030    -3.3160    -0.1430 n1         1 0NU      -0.343800
      2 C15         -4.7360    -2.2350    -0.2740 c1         1 0NU       0.217700
      3 C14         -4.3190    -0.8570    -0.4630 c3         1 0NU      -0.099300
      4 C13         -2.9090    -0.6560     0.0860 c          1 0NU       0.678100
      5 O           -2.3010    -1.6040     0.5520 o          1 0NU      -0.571100
      6 N4          -2.4210     0.5970     0.0380 n          1 0NU      -0.475800
      7 C11         -3.0460     1.7220    -0.6420 c6         1 0NU       0.096000
      8 C10         -2.2280     2.1110    -1.8670 c6         1 0NU      -0.100400
      9 C9          -0.7800     2.4010    -1.4860 c6         1 0NU      -0.088400
     10 C12         -1.0660     0.8690     0.4770 c6         1 0NU       0.072000
     11 C8          -0.1930     1.2120    -0.7350 c6         1 0NU       0.041000
     12 N3           1.1790     1.4400    -0.3150 na         1 0NU      -0.142300
     13 C4           2.0990     0.4690    -0.0420 ca         1 0NU      -0.012200
     14 C3           2.0980    -0.9300    -0.0870 ca         1 0NU      -0.201100
     15 C            1.2100    -2.0020    -0.3880 cc         1 0NU      -0.173200
     16 C7           1.8000     2.6330    -0.0630 cc         1 0NU       0.392700
     17 N2           3.0300     2.5070     0.3310 nd         1 0NU      -0.545100
     18 C5           3.2550     1.1510     0.3540 ca         1 0NU      -0.089900
     19 C6           4.4140     0.4370     0.6930 ca         1 0NU       0.490200
     20 N1           4.4550    -0.8790     0.6560 nb         1 0NU      -0.691000
     21 C2           3.3360    -1.5020     0.2820 ca         1 0NU       0.424800
     22 N            3.1930    -2.8540     0.1970 na         1 0NU      -0.257100
     23 C1           1.9240    -3.1540    -0.2010 cd         1 0NU      -0.115100
     24 H14         -4.3700    -0.6300    -1.5310 hc         1 0NU       0.087200
     25 H15         -5.0430    -0.2080     0.0350 hc         1 0NU       0.087200
     26 H11         -4.0680     1.4890    -0.9240 h1         1 0NU       0.055200
     27 H10         -3.0970     2.5590     0.0600 h1         1 0NU       0.055200
     28 H8          -2.2730     1.3040    -2.6040 hc         1 0NU       0.057200
     29 H9          -2.6720     2.9940    -2.3280 hc         1 0NU       0.057200
     30 H6          -0.1860     2.6190    -2.3760 hc         1 0NU       0.057200
     31 H7          -0.7620     3.2940    -0.8530 hc         1 0NU       0.057200
     32 H13         -1.0810     1.7200     1.1660 h1         1 0NU       0.080200
     33 H12         -0.6740     0.0100     1.0170 h1         1 0NU       0.080200
     34 H1          -0.1770     0.3530    -1.4120 h1         1 0NU       0.081700
     35 H2           0.1760    -1.9480    -0.6880 ha         1 0NU       0.162000
     36 H5           1.2910     3.5750    -0.1930 h5         1 0NU       0.060800
     37 H4           5.3140     0.9610     0.9980 h4         1 0NU       0.035100
     38 H            3.9130    -3.5260     0.4050 hn         1 0NU       0.309700
     39 H3           1.6140    -4.1790    -0.3210 h4         1 0NU       0.168000
@<TRIPOS>BOND
     1     1     2 3   
     2     2     3 1   
     3     3     4 1   
     4     3    24 1   
     5     3    25 1   
     6     4     5 2   
     7     4     6 1   
     8     6     7 1   
     9     6    10 1   
    10     7     8 1   
    11     7    26 1   
    12     7    27 1   
    13     8     9 1   
    14     8    28 1   
    15     8    29 1   
    16     9    11 1   
    17     9    30 1   
    18     9    31 1   
    19    10    11 1   
    20    10    32 1   
    21    10    33 1   
    22    11    12 1   
    23    11    34 1   
    24    12    13 1   
    25    12    16 1   
    26    13    14 ar  
    27    13    18 ar  
    28    14    15 1   
    29    14    21 ar  
    30    15    23 2   
    31    15    35 1   
    32    16    17 2   
    33    16    36 1   
    34    17    18 1   
    35    18    19 ar  
    36    19    20 ar  
    37    19    37 1   
    38    20    21 ar  
    39    21    22 1   
    40    22    23 1   
    41    22    38 1   
    42    23    39 1   
@<TRIPOS>SUBSTRUCTURE
     1 0NU         1 TEMP              0 ****  ****    0 ROOT
