@<TRIPOS>MOLECULE
0NU
   39    42     1     0     0
SMALL
No Charge or Current Charge


@<TRIPOS>ATOM
      1 N5          -6.5320    -0.0260     0.8640 n1         1 0NU      -0.433000
      2 C15         -5.6360    -0.5970     0.3890 c1         1 0NU       0.306900
      3 C14         -4.5220    -1.2990    -0.2410 c3         1 0NU      -0.099300
      4 C13         -3.1920    -0.8720     0.3750 c          1 0NU       0.611100
      5 O           -2.7990    -1.4030     1.4060 o          1 0NU      -0.571100
      6 N4          -2.3940     0.0970    -0.2870 n          1 0NU      -0.408800
      7 C11         -3.0390     1.2480    -0.9980 c6         1 0NU       0.096000
      8 C10         -2.0940     2.0240    -1.9460 c6         1 0NU      -0.100400
      9 C9          -0.7880     2.4290    -1.2380 c6         1 0NU      -0.088400
     10 C12         -1.0350     0.4000     0.2690 c6         1 0NU       0.072000
     11 C8          -0.0950     1.1570    -0.7040 c6         1 0NU       0.070300
     12 N3           1.2030     1.4480    -0.0500 na         1 0NU      -0.171600
     13 C4           2.2230     0.5450     0.0750 ca         1 0NU      -0.012200
     14 C3           2.4020    -0.7950    -0.3040 ca         1 0NU      -0.135800
     15 C            1.5550    -1.7370    -0.9800 cc         1 0NU      -0.223200
     16 C7           1.6300     2.6350     0.5590 cc         1 0NU       0.392700
     17 N2           2.8820     2.5060     1.0490 nd         1 0NU      -0.545100
     18 C5           3.2330     1.1860     0.7340 ca         1 0NU      -0.024600
     19 C6           4.4360     0.4870     1.0100 ca         1 0NU       0.424900
     20 N1           4.6200    -0.8160     0.6390 nb         1 0NU      -0.691000
     21 C2           3.5980    -1.4250    -0.0080 ca         1 0NU       0.359500
     22 N            3.5410    -2.7250    -0.4730 na         1 0NU      -0.307400
     23 C1           2.2720    -2.9180    -1.0750 cd         1 0NU      -0.165100
     24 H14         -4.6670    -2.3710    -0.0710 hc         1 0NU       0.087200
     25 H15         -4.5510    -1.0840    -1.3120 hc         1 0NU       0.087200
     26 H11         -3.9000     0.9150    -1.5900 h1         1 0NU       0.055200
     27 H10         -3.4260     1.9450    -0.2400 h1         1 0NU       0.055200
     28 H8          -1.8630     1.3990    -2.8200 hc         1 0NU       0.057200
     29 H9          -2.6060     2.9170    -2.3290 hc         1 0NU       0.057200
     30 H6          -0.1280     2.9560    -1.9420 hc         1 0NU       0.057200
     31 H7          -1.0140     3.1260    -0.4190 hc         1 0NU       0.057200
     32 H13         -1.1590     0.9980     1.1830 h1         1 0NU       0.080200
     33 H12         -0.5450    -0.5380     0.5690 h1         1 0NU       0.080200
     34 H1           0.1040     0.5160    -1.5710 h1         1 0NU       0.081700
     35 H2           0.5440    -1.5960    -1.3540 ha         1 0NU       0.212000
     36 H5           1.0120     3.5230     0.6140 h5         1 0NU       0.060800
     37 H4           5.2600     0.9710     1.5330 h4         1 0NU       0.035100
     38 H            4.2860    -3.4060    -0.3870 hn         1 0NU       0.360000
     39 H3           1.9790    -3.8700    -1.5180 h4         1 0NU       0.218000
@<TRIPOS>BOND
     1     1     2 3   
     2     2     3 1   
     3     3     4 1   
     4     3    24 1   
     5     3    25 1   
     6     4     5 2   
     7     4     6 1   
     8     6     7 1   
     9     6    10 1   
    10     7     8 1   
    11     7    26 1   
    12     7    27 1   
    13     8     9 1   
    14     8    28 1   
    15     8    29 1   
    16     9    11 1   
    17     9    30 1   
    18     9    31 1   
    19    10    11 1   
    20    10    32 1   
    21    10    33 1   
    22    11    12 1   
    23    11    34 1   
    24    12    13 1   
    25    12    16 1   
    26    13    14 ar  
    27    13    18 ar  
    28    14    15 1   
    29    14    21 ar  
    30    15    23 2   
    31    15    35 1   
    32    16    17 2   
    33    16    36 1   
    34    17    18 1   
    35    18    19 ar  
    36    19    20 ar  
    37    19    37 1   
    38    20    21 ar  
    39    21    22 1   
    40    22    23 1   
    41    22    38 1   
    42    23    39 1   
@<TRIPOS>SUBSTRUCTURE
     1 0NU         1 TEMP              0 ****  ****    0 ROOT
