@<TRIPOS>MOLECULE
0NV
   46    50     1     0     0
SMALL
No Charge or Current Charge


@<TRIPOS>ATOM
      1 C1           0.0720     0.0370     1.3690 c6         1 0NV      -0.089900
      2 C2          -1.1550    -0.8910     1.5180 c6         1 0NV       0.166300
      3 N3          -2.3110    -0.4020     0.7180 n3         1 0NV      -0.722600
      4 C4          -1.9640    -0.2680    -0.7260 c6         1 0NV       0.166300
      5 C5          -0.7640     0.6850    -0.9280 c6         1 0NV      -0.089900
      6 C6           0.4620     0.1910    -0.1200 c6         1 0NV       0.087300
      7 N7           1.6400     1.0780    -0.2670 na         1 0NV      -0.163600
      8 C8           1.6740     2.4490    -0.5550 cc         1 0NV       0.395700
      9 N9           2.9470     2.8990    -0.6270 nd         1 0NV      -0.550100
     10 C10          3.7220     1.7630    -0.3630 ca         1 0NV      -0.025600
     11 C11          5.1360     1.6320    -0.2970 ca         1 0NV       0.427900
     12 N12          5.7440     0.4400    -0.0120 nb         1 0NV      -0.696000
     13 C13          4.9360    -0.6220     0.2100 ca         1 0NV       0.359500
     14 N14          5.2690    -1.9270     0.5240 na         1 0NV      -0.307400
     15 C15          4.1250    -2.7400     0.6920 cc         1 0NV      -0.171100
     16 C16          3.0660    -1.8800     0.4650 cd         1 0NV      -0.230200
     17 C17          3.5560    -0.5550     0.1600 ca         1 0NV      -0.132800
     18 C18          2.9370     0.6660    -0.1400 ca         1 0NV      -0.010200
     19 C19         -3.5290    -1.2170     0.9460 c3         1 0NV       0.215100
     20 C20         -4.7830    -0.6310     0.3020 ca         1 0NV      -0.091300
     21 C21         -5.3150     0.5870     0.7700 ca         1 0NV      -0.097500
     22 C22         -6.4690     1.1320     0.1800 ca         1 0NV      -0.113500
     23 C23         -7.0990     0.4610    -0.8820 ca         1 0NV      -0.107000
     24 C24         -6.5730    -0.7540    -1.3540 ca         1 0NV      -0.113500
     25 C25         -5.4190    -1.2980    -0.7640 ca         1 0NV      -0.097500
     26 H1          -0.1590     1.0200     1.8010 hc         1 0NV       0.060950
     27 H2           0.9140    -0.3690     1.9450 hc         1 0NV       0.060950
     28 H3          -0.8760    -1.9080     1.2020 h1         1 0NV       0.038200
     29 H4          -1.4240    -0.9470     2.5830 h1         1 0NV       0.038200
     30 H6          -1.7200    -1.2530    -1.1530 h1         1 0NV       0.038200
     31 H7          -2.8170     0.1290    -1.2950 h1         1 0NV       0.038200
     32 H8          -0.5160     0.7460    -1.9960 hc         1 0NV       0.060950
     33 H9          -1.0590     1.6930    -0.6080 hc         1 0NV       0.060950
     34 H10          0.7310    -0.7940    -0.5220 h1         1 0NV       0.070700
     35 H11          0.7790     3.0420    -0.6980 h5         1 0NV       0.064800
     36 H12          5.7870     2.4880    -0.4700 h4         1 0NV       0.035100
     37 H13          4.1610    -3.7980     0.9470 h4         1 0NV       0.215000
     38 H14          2.0240    -2.1820     0.5250 ha         1 0NV       0.200000
     39 H16         -3.3720    -2.2370     0.5710 h1         1 0NV       0.039200
     40 H17         -3.7180    -1.3030     2.0250 h1         1 0NV       0.039200
     41 H18         -4.8280     1.1120     1.5890 ha         1 0NV       0.116500
     42 H19         -6.8740     2.0730     0.5450 ha         1 0NV       0.112500
     43 H20         -7.9920     0.8820    -1.3390 ha         1 0NV       0.112000
     44 H21         -7.0600    -1.2730    -2.1770 ha         1 0NV       0.112500
     45 H22         -5.0180    -2.2380    -1.1370 ha         1 0NV       0.116500
     46 H5           6.2280    -2.2390     0.6190 hn         1 0NV       0.360000
@<TRIPOS>BOND
     1     1     2 1   
     2     1     6 1   
     3     1    26 1   
     4     1    27 1   
     5     2     3 1   
     6     2    28 1   
     7     2    29 1   
     8     3     4 1   
     9     3    19 1   
    10     4     5 1   
    11     4    30 1   
    12     4    31 1   
    13     5     6 1   
    14     5    32 1   
    15     5    33 1   
    16     6     7 1   
    17     6    34 1   
    18     7     8 1   
    19     7    18 1   
    20     8     9 2   
    21     8    35 1   
    22     9    10 1   
    23    10    11 ar  
    24    10    18 ar  
    25    11    12 ar  
    26    11    36 1   
    27    12    13 ar  
    28    13    14 1   
    29    13    17 ar  
    30    14    15 1   
    31    14    46 1   
    32    15    16 2   
    33    15    37 1   
    34    16    17 1   
    35    16    38 1   
    36    17    18 ar  
    37    19    20 1   
    38    19    39 1   
    39    19    40 1   
    40    20    21 ar  
    41    20    25 ar  
    42    21    22 ar  
    43    21    41 1   
    44    22    23 ar  
    45    22    42 1   
    46    23    24 ar  
    47    23    43 1   
    48    24    25 ar  
    49    24    44 1   
    50    25    45 1   
@<TRIPOS>SUBSTRUCTURE
     1 0NV         1 TEMP              0 ****  ****    0 ROOT
