@<TRIPOS>MOLECULE
0NV
   46    50     1     0     0
SMALL
bcc


@<TRIPOS>ATOM
      1 C1          -0.2020     0.2750     1.7310 c6         1 0NV      -0.089900
      2 C2          -1.4170    -0.6310     1.8630 c6         1 0NV       0.166300
      3 N3          -2.4040    -0.3260     0.8450 n3         1 0NV      -0.722600
      4 C4          -1.8570    -0.5150    -0.4860 c6         1 0NV       0.166300
      5 C5          -0.6560     0.3870    -0.7240 c6         1 0NV      -0.089900
      6 C6           0.4020     0.1270     0.3410 c6         1 0NV       0.058000
      7 N7           1.5750     0.9700     0.1660 na         1 0NV      -0.134300
      8 C8           1.5920     2.3370     0.1570 cc         1 0NV       0.395700
      9 N9           2.7780     2.8430     0.0010 nd         1 0NV      -0.550100
     10 C10          3.6110     1.7540    -0.0980 ca         1 0NV      -0.090900
     11 C11          5.0010     1.7020    -0.2750 ca         1 0NV       0.493200
     12 N12          5.6510     0.5590    -0.3430 nb         1 0NV      -0.696000
     13 C13          4.9180    -0.5520    -0.2360 ca         1 0NV       0.424800
     14 N14          5.4220    -1.8170    -0.2800 na         1 0NV      -0.257100
     15 C15          4.4090    -2.7170    -0.1380 cc         1 0NV      -0.121100
     16 C16          3.2190    -2.0580     0.0010 cd         1 0NV      -0.180200
     17 C17          3.5210    -0.6660    -0.0600 ca         1 0NV      -0.198100
     18 C18          2.8680     0.5710     0.0070 ca         1 0NV      -0.010200
     19 C19         -3.6240    -1.0850     1.0320 c3         1 0NV       0.215100
     20 C20         -4.7680    -0.5510     0.2090 ca         1 0NV      -0.091300
     21 C21         -5.0530     0.8140     0.1980 ca         1 0NV      -0.115500
     22 C22         -6.1250     1.3060    -0.5300 ca         1 0NV      -0.131500
     23 C23         -6.9320     0.4400    -1.2600 ca         1 0NV      -0.125000
     24 C24         -6.6540    -0.9190    -1.2590 ca         1 0NV      -0.131500
     25 C25         -5.5750    -1.4080    -0.5300 ca         1 0NV      -0.115500
     26 H1          -0.5020     1.3130     1.8990 hc         1 0NV       0.060950
     27 H2           0.5360     0.0170     2.4930 hc         1 0NV       0.060950
     28 H3          -1.0890    -1.6850     1.8120 h1         1 0NV       0.038200
     29 H4          -1.8680    -0.4890     2.8480 h1         1 0NV       0.038200
     30 H6          -1.5660    -1.5680    -0.6510 h1         1 0NV       0.038200
     31 H7          -2.6270    -0.2870    -1.2260 h1         1 0NV       0.038200
     32 H8          -0.2470     0.2010    -1.7180 hc         1 0NV       0.060950
     33 H9          -0.9810     1.4310    -0.6880 hc         1 0NV       0.060950
     34 H10          0.7490    -0.9020     0.2250 h1         1 0NV       0.070700
     35 H11          0.6850     2.9120     0.2730 h5         1 0NV       0.064800
     36 H12          5.5800     2.6150    -0.3590 h4         1 0NV       0.035100
     37 H13          4.6090    -3.7760    -0.1430 h4         1 0NV       0.165000
     38 H14          2.2580    -2.5270     0.1290 ha         1 0NV       0.150000
     39 H16         -3.4830    -2.1560     0.8090 h1         1 0NV       0.039200
     40 H17         -3.8950    -1.0280     2.0910 h1         1 0NV       0.039200
     41 H18         -4.4230     1.4920     0.7610 ha         1 0NV       0.134500
     42 H19         -6.3370     2.3680    -0.5270 ha         1 0NV       0.130500
     43 H20         -7.7700     0.8250    -1.8270 ha         1 0NV       0.130000
     44 H21         -7.2710    -1.6010    -1.8300 ha         1 0NV       0.130500
     45 H22         -5.3570    -2.4700    -0.5410 ha         1 0NV       0.134500
     46 H5           6.3960    -2.0470    -0.3930 hn         1 0NV       0.309700
@<TRIPOS>BOND
     1     1     2 1   
     2     1     6 1   
     3     1    26 1   
     4     1    27 1   
     5     2     3 1   
     6     2    28 1   
     7     2    29 1   
     8     3     4 1   
     9     3    19 1   
    10     4     5 1   
    11     4    30 1   
    12     4    31 1   
    13     5     6 1   
    14     5    32 1   
    15     5    33 1   
    16     6     7 1   
    17     6    34 1   
    18     7     8 1   
    19     7    18 1   
    20     8     9 2   
    21     8    35 1   
    22     9    10 1   
    23    10    11 ar  
    24    10    18 ar  
    25    11    12 ar  
    26    11    36 1   
    27    12    13 ar  
    28    13    14 1   
    29    13    17 ar  
    30    14    15 1   
    31    14    46 1   
    32    15    16 2   
    33    15    37 1   
    34    16    17 1   
    35    16    38 1   
    36    17    18 ar  
    37    19    20 1   
    38    19    39 1   
    39    19    40 1   
    40    20    21 ar  
    41    20    25 ar  
    42    21    22 ar  
    43    21    41 1   
    44    22    23 ar  
    45    22    42 1   
    46    23    24 ar  
    47    23    43 1   
    48    24    25 ar  
    49    24    44 1   
    50    25    45 1   
@<TRIPOS>SUBSTRUCTURE
     1 0NV         1 TEMP              0 ****  ****    0 ROOT
