@<TRIPOS>MOLECULE
0NW
   73    76     1     0     0
SMALL
No Charge or Current Charge


@<TRIPOS>ATOM
      1 C1           6.2080    -0.1330     1.3330 ca         1 0NW      -0.111000
      2 C2           6.6240    -1.4750     1.3040 ca         1 0NW      -0.072000
      3 C3           6.0230    -2.3950     0.4130 ca         1 0NW      -0.187900
      4 C8           2.0250    -0.4560    -0.7430 c3         1 0NW       0.148500
      5 C9           0.9450     0.4850    -1.3910 c          1 0NW       0.582100
      6 C12         -0.4660     2.5550    -1.3580 c6         1 0NW       0.094500
      7 C13         -1.0740     3.6160    -0.4150 c6         1 0NW      -0.099400
      8 C14          0.0140     4.4650     0.2750 c6         1 0NW      -0.057700
      9 C15          0.9590     3.5070     1.0350 c6         1 0NW      -0.099400
     10 C16          1.5790     2.4420     0.1000 c6         1 0NW       0.094500
     11 C30         -0.8830     0.3430     2.2590 ca         1 0NW      -0.136000
     12 C31         -2.1200     0.6130     1.6530 ca         1 0NW      -0.046000
     13 C32         -2.5680    -0.1260     0.5300 cp         1 0NW      -0.058000
     14 C33         -1.7110    -1.1380     0.0230 ca         1 0NW       0.009000
     15 C34         -3.9450     0.1110    -0.0240 cp         1 0NW      -0.034000
     16 C35         -4.2470     0.1740    -1.4190 ca         1 0NW       0.127000
     17 C44          6.4240    -3.8340     0.4160 ce         1 0NW       0.657800
     18 N46          5.6600    -4.7730     0.0380 n2         1 0NW      -0.837100
     19 N45          7.7070    -4.1310     0.6900 nv         1 0NW      -1.039200
     20 C4           4.9770    -1.9390    -0.4240 ca         1 0NW      -0.071000
     21 C5           4.5580    -0.5950    -0.3970 ca         1 0NW      -0.087300
     22 N24          1.7500    -1.9160    -0.9400 n7         1 0NW      -0.876300
     23 S25          0.5950    -2.7140    -0.0320 sy         1 0NW       1.155600
     24 C28         -0.4550    -1.3990     0.6150 ca         1 0NW      -0.308500
     25 C39         -5.0220     0.2800     0.8860 ca         1 0NW      -0.084000
     26 C38         -6.3350     0.5010     0.4380 ca         1 0NW      -0.102000
     27 C37         -6.6030     0.5600    -0.9350 ca         1 0NW       0.129000
     28 Cl2         -8.2460     0.8380    -1.4990 cl         1 0NW      -0.188000
     29 C36         -5.5630     0.3970    -1.8590 ca         1 0NW      -0.099000
     30 Cl1         -3.0190     0.0160    -2.6730 cl         1 0NW      -0.169000
     31 C29         -0.0570    -0.6720     1.7550 ca         1 0NW      -0.013000
     32 O27         -0.1600    -3.4860    -1.0190 o          1 0NW      -0.527500
     33 O26          1.3350    -3.3590     1.0550 o          1 0NW      -0.527500
     34 N11          0.5900     1.6980    -0.7410 n          1 0NW      -0.392800
     35 N19         -0.3080     7.5720     2.6300 n8         1 0NW      -0.997200
     36 O10          0.3710     0.1320    -2.4180 o          1 0NW      -0.613100
     37 C6           5.1810     0.3070     0.4850 ca         1 0NW      -0.095000
     38 H1           6.6790     0.5650     2.0210 ha         1 0NW       0.113000
     39 H2           7.4060    -1.7970     1.9890 ha         1 0NW       0.124000
     40 H5           2.0630    -0.2380     0.3290 h1         1 0NW       0.074700
     41 H6          -1.2830     1.9210    -1.7250 h1         1 0NW       0.058450
     42 H7          -0.0330     3.0610    -2.2330 h1         1 0NW       0.058450
     43 H8          -1.7530     4.2610    -0.9890 hc         1 0NW       0.054450
     44 H9          -1.6910     3.1160     0.3420 hc         1 0NW       0.054450
     45 H10          0.5880     5.0010    -0.4960 hc         1 0NW       0.044700
     46 H11          1.7720     4.0650     1.5170 hc         1 0NW       0.054450
     47 H12          0.4080     3.0030     1.8400 hc         1 0NW       0.054450
     48 H13          2.2920     2.9410    -0.5730 h1         1 0NW       0.058450
     49 H14          2.1600     1.7550     0.7270 h1         1 0NW       0.058450
     50 H15         -0.5690     0.9130     3.1300 ha         1 0NW       0.124000
     51 H16         -2.7470     1.3990     2.0690 ha         1 0NW       0.122000
     52 H17         -2.0470    -1.7450    -0.8140 ha         1 0NW       0.140000
     53 H18          4.7160    -4.3790    -0.0650 hn         1 0NW       0.396400
     54 H19          8.3640    -3.3750     0.5380 hn         1 0NW       0.468500
     55 H20          8.0000    -5.0440     0.3670 hn         1 0NW       0.468500
     56 H21          4.4870    -2.6260    -1.1110 ha         1 0NW       0.124000
     57 H22          1.3550    -2.0500    -1.8720 hn         1 0NW       0.515000
     58 H23         -4.8390     0.2250     1.9560 ha         1 0NW       0.126000
     59 H24         -7.1430     0.6250     1.1550 ha         1 0NW       0.136000
     60 H25         -5.7770     0.4470    -2.9230 ha         1 0NW       0.146000
     61 H26          0.8910    -0.8850     2.2480 ha         1 0NW       0.141000
     62 H29          1.0660     5.9940     2.5060 h1         1 0NW       0.026200
     63 H30          0.9700     7.0250     1.0540 h1         1 0NW       0.026200
     64 H31          0.3880     8.2400     2.9830 hn         1 0NW       0.393500
     65 H32         -0.8880     8.1410     2.0010 hn         1 0NW       0.393500
     66 H34          4.8660     1.3480     0.5200 ha         1 0NW       0.103000
     67 C7           3.4290    -0.1200    -1.3080 c3         1 0NW      -0.021100
     68 C17         -0.6230     5.5490     1.1990 c3         1 0NW      -0.075400
     69 C18          0.3800     6.5340     1.8400 c3         1 0NW       0.149800
     70 H3           3.5340    -0.5550    -2.3100 hc         1 0NW       0.061200
     71 H4           3.5120     0.9640    -1.4510 hc         1 0NW       0.061200
     72 H27         -1.3470     6.1320     0.6160 hc         1 0NW       0.048700
     73 H28         -1.1960     5.0610     1.9980 hc         1 0NW       0.048700
@<TRIPOS>BOND
     1     1     2 ar  
     2     1    37 ar  
     3     1    38 1   
     4     2     3 ar  
     5     2    39 1   
     6     3    17 1   
     7     3    20 ar  
     8     4     5 1   
     9     4    22 1   
    10     4    40 1   
    11     4    67 1   
    12     5    34 1   
    13     5    36 2   
    14     6     7 1   
    15     6    34 1   
    16     6    41 1   
    17     6    42 1   
    18     7     8 1   
    19     7    43 1   
    20     7    44 1   
    21     8     9 1   
    22     8    45 1   
    23     8    68 1   
    24     9    10 1   
    25     9    46 1   
    26     9    47 1   
    27    10    34 1   
    28    10    48 1   
    29    10    49 1   
    30    11    12 ar  
    31    11    31 ar  
    32    11    50 1   
    33    12    13 ar  
    34    12    51 1   
    35    13    14 ar  
    36    13    15 1   
    37    14    24 ar  
    38    14    52 1   
    39    15    16 ar  
    40    15    25 ar  
    41    16    29 ar  
    42    16    30 1   
    43    17    18 2   
    44    17    19 1   
    45    18    53 1   
    46    19    54 1   
    47    19    55 1   
    48    20    21 ar  
    49    20    56 1   
    50    21    37 ar  
    51    21    67 1   
    52    22    23 1   
    53    22    57 1   
    54    23    24 1   
    55    23    32 2   
    56    23    33 2   
    57    24    31 ar  
    58    25    26 ar  
    59    25    58 1   
    60    26    27 ar  
    61    26    59 1   
    62    27    28 1   
    63    27    29 ar  
    64    29    60 1   
    65    31    61 1   
    66    35    64 1   
    67    35    65 1   
    68    35    69 1   
    69    37    66 1   
    70    62    69 1   
    71    63    69 1   
    72    67    70 1   
    73    67    71 1   
    74    68    69 1   
    75    68    72 1   
    76    68    73 1   
@<TRIPOS>SUBSTRUCTURE
     1 0NW         1 TEMP              0 ****  ****    0 ROOT
