@<TRIPOS>MOLECULE
0NW
   73    76     1     0     0
SMALL
bcc


@<TRIPOS>ATOM
      1 C1           6.3170    -0.7050     1.1190 ca         1 0NW      -0.129000
      2 C2           6.3260    -2.0920     1.0970 ca         1 0NW      -0.090000
      3 C3           5.4780    -2.7760     0.2290 ca         1 0NW      -0.187900
      4 C8           2.2640     0.1370    -0.7800 c3         1 0NW       0.148500
      5 C9           1.3090     0.9980    -1.6170 c          1 0NW       0.649100
      6 C12          0.3210     3.1630    -2.1050 c6         1 0NW       0.094500
      7 C13         -0.6830     3.7140    -1.1020 c6         1 0NW      -0.099400
      8 C14          0.0010     4.4900     0.0220 c6         1 0NW      -0.057700
      9 C15          1.1030     3.6330     0.6480 c6         1 0NW      -0.099400
     10 C16          2.0380     3.0530    -0.4040 c6         1 0NW       0.094500
     11 C30         -0.9470     1.0240     2.6830 ca         1 0NW      -0.154000
     12 C31         -2.1550     0.9980     2.0050 ca         1 0NW      -0.064000
     13 C32         -2.3660     0.1080     0.9510 cp         1 0NW      -0.058000
     14 C33         -1.3420    -0.7590     0.5890 ca         1 0NW      -0.009000
     15 C34         -3.6780     0.0750     0.2700 cp         1 0NW      -0.034000
     16 C35         -3.8280     0.2290    -1.1090 ca         1 0NW       0.035400
     17 C44          5.3990    -4.2630     0.2340 ce         1 0NW       0.657800
     18 N46          4.3080    -4.9230     0.1330 n2         1 0NW      -0.837100
     19 N45          6.5870    -4.9040     0.4100 nv         1 0NW      -0.928800
     20 C4           4.6470    -2.0570    -0.6220 ca         1 0NW      -0.089000
     21 C5           4.6240    -0.6680    -0.6020 ca         1 0NW      -0.087300
     22 N24          1.7140    -1.2020    -0.6910 n7         1 0NW      -0.821100
     23 S25          1.1780    -1.7930     0.7420 sy         1 0NW       1.297200
     24 C28         -0.1330    -0.7150     1.2690 ca         1 0NW      -0.308500
     25 C39         -4.8370    -0.0990     1.0250 ca         1 0NW      -0.102000
     26 C38         -6.0940    -0.1300     0.4460 ca         1 0NW      -0.120000
     27 C37         -6.1980     0.0200    -0.9270 ca         1 0NW       0.037400
     28 CL2         -7.7540    -0.0180    -1.6780 cl         1 0NW      -0.096400
     29 C36         -5.0750     0.2030    -1.7160 ca         1 0NW      -0.117000
     30 CL1         -2.4470     0.4980    -2.1110 cl         1 0NW      -0.077400
     31 C29          0.0810     0.1680     2.3170 ca         1 0NW      -0.031000
     32 O27          0.6150    -3.0980     0.4360 o          1 0NW      -0.598300
     33 O26          2.2530    -1.6720     1.7080 o          1 0NW      -0.598300
     34 N11          1.2930     2.3230    -1.4170 n          1 0NW      -0.459800
     35 N19         -1.4920     6.3690     3.0040 n8         1 0NW      -0.886800
     36 O10          0.6340     0.4360    -2.4720 o          1 0NW      -0.613100
     37 C6           5.4670     0.0010     0.2800 ca         1 0NW      -0.113000
     38 H1           6.9670    -0.1720     1.8000 ha         1 0NW       0.131000
     39 H2           6.9750    -2.6370     1.7710 ha         1 0NW       0.142000
     40 H5           2.3860     0.5330     0.2290 h1         1 0NW       0.074700
     41 H6          -0.1720     2.5910    -2.8840 h1         1 0NW       0.058450
     42 H7           0.8600     3.9850    -2.5870 h1         1 0NW       0.058450
     43 H8          -1.3930     4.3580    -1.6270 hc         1 0NW       0.054450
     44 H9          -1.2570     2.8810    -0.6820 hc         1 0NW       0.054450
     45 H10          0.4770     5.3750    -0.4240 hc         1 0NW       0.044700
     46 H11          1.7040     4.2150     1.3500 hc         1 0NW       0.054450
     47 H12          0.6470     2.8160     1.2180 hc         1 0NW       0.054450
     48 H13          2.5770     3.8620    -0.9060 h1         1 0NW       0.058450
     49 H14          2.7950     2.4260     0.0590 h1         1 0NW       0.058450
     50 H15         -0.8030     1.7210     3.4980 ha         1 0NW       0.142000
     51 H16         -2.9430     1.6830     2.2920 ha         1 0NW       0.140000
     52 H17         -1.4950    -1.4740    -0.2100 ha         1 0NW       0.158000
     53 H18          3.5120    -4.2960     0.1220 hn         1 0NW       0.396400
     54 H19          7.4280    -4.4500     0.0960 hn         1 0NW       0.413300
     55 H20          6.5820    -5.9050     0.3000 hn         1 0NW       0.413300
     56 H21          4.0080    -2.5860    -1.3190 ha         1 0NW       0.142000
     57 H22          1.1130    -1.4400    -1.4770 hn         1 0NW       0.459800
     58 H23         -4.7520    -0.2270     2.0960 ha         1 0NW       0.144000
     59 H24         -6.9740    -0.2740     1.0570 ha         1 0NW       0.154000
     60 H25         -5.1640     0.3300    -2.7850 ha         1 0NW       0.164000
     61 H26          1.0230     0.1910     2.8460 ha         1 0NW       0.159000
     62 H29          0.2690     5.3150     2.7450 h1         1 0NW       0.026200
     63 H30          0.1390     6.6710     1.6400 h1         1 0NW       0.026200
     64 H31         -1.0820     6.9550     3.7200 hn         1 0NW       0.338300
     65 H32         -2.1060     6.9780     2.4760 hn         1 0NW       0.338300
     66 H34          5.4580     1.0850     0.3130 ha         1 0NW       0.121000
     67 C7           3.6500     0.0910    -1.4520 c3         1 0NW      -0.021100
     68 C17         -1.0190     4.9640     1.0530 c3         1 0NW      -0.075400
     69 C18         -0.4410     5.8720     2.1280 c3         1 0NW       0.149800
     70 H3           3.5410    -0.3690    -2.4360 hc         1 0NW       0.061200
     71 H4           4.0060     1.1100    -1.6180 hc         1 0NW       0.061200
     72 H27         -1.8170     5.5040     0.5300 hc         1 0NW       0.048700
     73 H28         -1.4910     4.0960     1.5260 hc         1 0NW       0.048700
@<TRIPOS>BOND
     1     1     2 ar  
     2     1    37 ar  
     3     1    38 1   
     4     2     3 ar  
     5     2    39 1   
     6     3    17 1   
     7     3    20 ar  
     8     4     5 1   
     9     4    22 1   
    10     4    40 1   
    11     4    67 1   
    12     5    34 1   
    13     5    36 2   
    14     6     7 1   
    15     6    34 1   
    16     6    41 1   
    17     6    42 1   
    18     7     8 1   
    19     7    43 1   
    20     7    44 1   
    21     8     9 1   
    22     8    45 1   
    23     8    68 1   
    24     9    10 1   
    25     9    46 1   
    26     9    47 1   
    27    10    34 1   
    28    10    48 1   
    29    10    49 1   
    30    11    12 ar  
    31    11    31 ar  
    32    11    50 1   
    33    12    13 ar  
    34    12    51 1   
    35    13    14 ar  
    36    13    15 1   
    37    14    24 ar  
    38    14    52 1   
    39    15    16 ar  
    40    15    25 ar  
    41    16    29 ar  
    42    16    30 1   
    43    17    18 2   
    44    17    19 1   
    45    18    53 1   
    46    19    54 1   
    47    19    55 1   
    48    20    21 ar  
    49    20    56 1   
    50    21    37 ar  
    51    21    67 1   
    52    22    23 1   
    53    22    57 1   
    54    23    24 1   
    55    23    32 2   
    56    23    33 2   
    57    24    31 ar  
    58    25    26 ar  
    59    25    58 1   
    60    26    27 ar  
    61    26    59 1   
    62    27    28 1   
    63    27    29 ar  
    64    29    60 1   
    65    31    61 1   
    66    35    64 1   
    67    35    65 1   
    68    35    69 1   
    69    37    66 1   
    70    62    69 1   
    71    63    69 1   
    72    67    70 1   
    73    67    71 1   
    74    68    69 1   
    75    68    72 1   
    76    68    73 1   
@<TRIPOS>SUBSTRUCTURE
     1 0NW         1 TEMP              0 ****  ****    0 ROOT
