@<TRIPOS>MOLECULE
0NX
   22    23     1     0     0
SMALL
No Charge or Current Charge


@<TRIPOS>ATOM
      1 O13          4.0970     1.2120    -0.8880 oh         1 0NX      -0.656000
      2 C12          3.7640     0.2730     0.1540 c3         1 0NX       0.127300
      3 C9           2.3490    -0.2570     0.0250 cc         1 0NX       0.272300
      4 C8           1.2170     0.5660     0.1600 cc         1 0NX      -0.212000
      5 N10          2.0520    -1.5270    -0.2180 nd         1 0NX      -0.370300
      6 O11          0.6080    -1.5420    -0.2470 os         1 0NX      -0.069700
      7 C7           0.1620    -0.2660    -0.0160 cd         1 0NX       0.232500
      8 C3          -1.2910    -0.0040     0.0060 ca         1 0NX      -0.146500
      9 C2          -2.2190    -1.0490    -0.2080 ca         1 0NX      -0.077000
     10 C4          -1.7780     1.3000     0.2420 ca         1 0NX      -0.077000
     11 C5          -3.1600     1.5540     0.2640 ca         1 0NX      -0.116500
     12 C6          -4.0730     0.5090     0.0510 ca         1 0NX      -0.092000
     13 C1          -3.6010    -0.7920    -0.1850 ca         1 0NX      -0.116500
     14 H1           5.0280     1.4950    -0.7370 ho         1 0NX       0.451000
     15 H2           4.4610    -0.5760     0.1340 h1         1 0NX       0.043200
     16 H3           3.8630     0.7490     1.1390 h1         1 0NX       0.043200
     17 H4           1.2170     1.6300     0.3580 ha         1 0NX       0.163000
     18 H5          -1.8760    -2.0650    -0.3930 ha         1 0NX       0.124500
     19 H6          -1.0890     2.1250     0.4100 ha         1 0NX       0.124500
     20 H7          -3.5240     2.5630     0.4470 ha         1 0NX       0.117500
     21 H8          -5.1430     0.7060     0.0680 ha         1 0NX       0.116000
     22 H9          -4.3060    -1.6040    -0.3510 ha         1 0NX       0.117500
@<TRIPOS>BOND
     1     1     2 1   
     2     1    14 1   
     3     2     3 1   
     4     2    15 1   
     5     2    16 1   
     6     3     4 1   
     7     3     5 2   
     8     4     7 2   
     9     4    17 1   
    10     5     6 1   
    11     6     7 1   
    12     7     8 1   
    13     8     9 ar  
    14     8    10 ar  
    15     9    13 ar  
    16     9    18 1   
    17    10    11 ar  
    18    10    19 1   
    19    11    12 ar  
    20    11    20 1   
    21    12    13 ar  
    22    12    21 1   
    23    13    22 1   
@<TRIPOS>SUBSTRUCTURE
     1 0NX         1 TEMP              0 ****  ****    0 ROOT
