@<TRIPOS>MOLECULE
0NX
   22    23     1     0     0
SMALL
bcc


@<TRIPOS>ATOM
      1 O13          3.8780     1.5320    -0.0130 oh         1 0NX      -0.593800
      2 C12          3.7860     0.1330     0.0120 c3         1 0NX       0.104100
      3 C9           2.3360    -0.2330     0.0270 cc         1 0NX       0.337600
      4 C8           1.2220     0.6370     0.0030 cc         1 0NX      -0.360600
      5 N10          1.9600    -1.4800     0.0600 nd         1 0NX      -0.370300
      6 O11          0.5980    -1.4650     0.0590 os         1 0NX      -0.114100
      7 C7           0.1550    -0.2060     0.0250 cd         1 0NX       0.342200
      8 C3          -1.2840     0.0140     0.0160 ca         1 0NX      -0.146500
      9 C2          -2.1860    -1.0520    -0.0080 ca         1 0NX      -0.095000
     10 C4          -1.7760     1.3210     0.0290 ca         1 0NX      -0.095000
     11 C5          -3.1390     1.5590     0.0180 ca         1 0NX      -0.134500
     12 C6          -4.0320     0.4940    -0.0070 ca         1 0NX      -0.110000
     13 C1          -3.5510    -0.8080    -0.0190 ca         1 0NX      -0.134500
     14 H1           4.8100     1.7710     0.0030 ho         1 0NX       0.412000
     15 H2           4.2580    -0.3290    -0.8630 h1         1 0NX       0.043200
     16 H3           4.2700    -0.2980     0.8970 h1         1 0NX       0.043200
     17 H4           1.2220     1.7130    -0.0290 ha         1 0NX       0.181000
     18 H5          -1.8330    -2.0750    -0.0200 ha         1 0NX       0.142500
     19 H6          -1.0900     2.1580     0.0510 ha         1 0NX       0.142500
     20 H7          -3.5060     2.5770     0.0280 ha         1 0NX       0.135500
     21 H8          -5.0990     0.6790    -0.0150 ha         1 0NX       0.134000
     22 H9          -4.2410    -1.6410    -0.0390 ha         1 0NX       0.135500
@<TRIPOS>BOND
     1     1     2 1   
     2     1    14 1   
     3     2     3 1   
     4     2    15 1   
     5     2    16 1   
     6     3     4 1   
     7     3     5 2   
     8     4     7 2   
     9     4    17 1   
    10     5     6 1   
    11     6     7 1   
    12     7     8 1   
    13     8     9 ar  
    14     8    10 ar  
    15     9    13 ar  
    16     9    18 1   
    17    10    11 ar  
    18    10    19 1   
    19    11    12 ar  
    20    11    20 1   
    21    12    13 ar  
    22    12    21 1   
    23    13    22 1   
@<TRIPOS>SUBSTRUCTURE
     1 0NX         1 TEMP              0 ****  ****    0 ROOT
