@<TRIPOS>MOLECULE
0NY
   45    47     1     0     0
SMALL
No Charge or Current Charge


@<TRIPOS>ATOM
      1 C1           2.0520     0.9950     0.3950 ca         1 0NY       0.065000
      2 C2           0.8630     0.6380    -0.2920 ca         1 0NY      -0.201000
      3 C3          -0.1750     1.5990    -0.3500 ca         1 0NY       0.418900
      4 N1          -0.0560     2.8020     0.2350 nb         1 0NY      -0.305000
      5 C4           1.1040     3.0490     0.8680 ca         1 0NY       0.173900
      6 N2           2.1530     2.2120     0.9770 nb         1 0NY      -0.203000
      7 C5           2.9810    -1.2270    -0.1060 ca         1 0NY       0.148100
      8 C6           1.7930    -1.5670    -0.7840 ca         1 0NY      -0.198000
      9 C7           0.7440    -0.6410    -0.8800 ca         1 0NY      -0.037000
     10 C8           3.1120     0.0560     0.4720 ca         1 0NY       0.063100
     11 O1           4.2840     0.3720     1.1340 os         1 0NY      -0.324100
     12 C9           5.2180     1.2810     0.5280 c3         1 0NY       0.151900
     13 O2           4.0380    -2.1150     0.0050 os         1 0NY      -0.319100
     14 C10          3.9960    -3.4400    -0.5540 c3         1 0NY       0.145900
     15 N3          -1.3840     1.3380    -0.9920 nu         1 0NY      -0.920100
     16 C11         -2.6720     2.0170    -0.7770 c3         1 0NY       0.242500
     17 C12         -2.7680     3.2720    -1.6690 c3         1 0NY      -0.111100
     18 C13         -3.8230     1.0180    -1.0610 c3         1 0NY      -0.033100
     19 C14         -3.7000    -0.2840    -0.3050 cc         1 0NY      -0.143300
     20 N4          -3.9150    -0.4670     1.0610 na         1 0NY       0.001800
     21 N5          -3.7090    -1.7730     1.4860 nc         1 0NY      -0.514800
     22 C15         -3.3670    -2.3920     0.3730 cd         1 0NY       0.259300
     23 C16         -3.3510    -1.5290    -0.7400 cd         1 0NY      -0.231000
     24 C17         -3.0410    -3.8590     0.3750 c3         1 0NY      -0.120400
     25 H1           1.2050     4.0230     1.3430 h5         1 0NY       0.042100
     26 H2           1.6630    -2.5420    -1.2440 ha         1 0NY       0.120000
     27 H3          -0.1570    -0.9390    -1.4110 ha         1 0NY       0.106000
     28 H4           6.0980     1.4070     1.1700 h1         1 0NY       0.034700
     29 H5           5.5540     0.8960    -0.4430 h1         1 0NY       0.034700
     30 H6           4.7660     2.2680     0.3710 h1         1 0NY       0.034700
     31 H7           3.8610    -3.4010    -1.6420 h1         1 0NY       0.042700
     32 H8           4.9350    -3.9690    -0.3480 h1         1 0NY       0.042700
     33 H9           3.1750    -4.0220    -0.1160 h1         1 0NY       0.042700
     34 H10         -1.4640     0.3850    -1.3340 hn         1 0NY       0.495000
     35 H11         -2.7590     2.3250     0.2760 h1         1 0NY       0.085700
     36 H12         -3.7300     3.7750    -1.5190 hc         1 0NY       0.046367
     37 H13         -1.9740     3.9880    -1.4260 hc         1 0NY       0.046367
     38 H14         -2.6790     3.0080    -2.7290 hc         1 0NY       0.046367
     39 H15         -4.7780     1.4980    -0.8140 hc         1 0NY       0.062700
     40 H16         -3.8580     0.8080    -2.1370 hc         1 0NY       0.062700
     41 H17         -4.1960     0.2580     1.7210 hn         1 0NY       0.371000
     42 H18         -3.1020    -1.8090    -1.7580 ha         1 0NY       0.137000
     43 H19         -2.8130    -4.2130    -0.6370 hc         1 0NY       0.047033
     44 H20         -2.1690    -4.0660     1.0070 hc         1 0NY       0.047033
     45 H21         -3.8840    -4.4480     0.7550 hc         1 0NY       0.047033
@<TRIPOS>BOND
     1     1     2 ar  
     2     1     6 ar  
     3     1    10 ar  
     4     2     3 ar  
     5     2     9 ar  
     6     3     4 ar  
     7     3    15 1   
     8     4     5 ar  
     9     5     6 ar  
    10     5    25 1   
    11     7     8 ar  
    12     7    10 ar  
    13     7    13 1   
    14     8     9 ar  
    15     8    26 1   
    16     9    27 1   
    17    10    11 1   
    18    11    12 1   
    19    12    28 1   
    20    12    29 1   
    21    12    30 1   
    22    13    14 1   
    23    14    31 1   
    24    14    32 1   
    25    14    33 1   
    26    15    16 1   
    27    15    34 1   
    28    16    17 1   
    29    16    18 1   
    30    16    35 1   
    31    17    36 1   
    32    17    37 1   
    33    17    38 1   
    34    18    19 1   
    35    18    39 1   
    36    18    40 1   
    37    19    20 1   
    38    19    23 2   
    39    20    21 1   
    40    20    41 1   
    41    21    22 2   
    42    22    23 1   
    43    22    24 1   
    44    23    42 1   
    45    24    43 1   
    46    24    44 1   
    47    24    45 1   
@<TRIPOS>SUBSTRUCTURE
     1 0NY         1 TEMP              0 ****  ****    0 ROOT
