@<TRIPOS>MOLECULE
0NY
   45    47     1     0     0
SMALL
abcg2


@<TRIPOS>ATOM
      1 C1           1.9910     0.7570     0.4930 ca         1 0NY       0.065000
      2 C2           0.8990     0.4120    -0.3330 ca         1 0NY      -0.201000
      3 C3          -0.2550     1.2700    -0.2370 ca         1 0NY       0.418900
      4 N1          -0.2590     2.3020     0.5920 nb         1 0NY      -0.305000
      5 C4           0.8400     2.5080     1.3270 ca         1 0NY       0.173900
      6 N2           1.9480     1.8260     1.3360 nb         1 0NY      -0.203000
      7 C5           3.2400    -1.1280    -0.3860 ca         1 0NY       0.148100
      8 C6           2.1400    -1.4700    -1.1930 ca         1 0NY      -0.198000
      9 C7           0.9960    -0.7110    -1.1640 ca         1 0NY      -0.037000
     10 C8           3.1580    -0.0300     0.4610 ca         1 0NY       0.063100
     11 O1           4.2040     0.2680     1.2690 os         1 0NY      -0.324100
     12 C9           5.0810     1.2600     0.7520 c3         1 0NY       0.151900
     13 O2           4.3930    -1.8080    -0.3640 os         1 0NY      -0.319100
     14 C10          4.5240    -2.9610    -1.1760 c3         1 0NY       0.145900
     15 N3          -1.3450     1.0400    -0.9740 nu         1 0NY      -0.920100
     16 C11         -2.5500     1.8470    -0.9330 c3         1 0NY       0.242500
     17 C12         -2.4860     3.0040    -1.9200 c3         1 0NY      -0.111100
     18 C13         -3.7600     0.9490    -1.2130 c3         1 0NY      -0.033100
     19 C14         -3.8520    -0.2150    -0.2890 cc         1 0NY      -0.143300
     20 N4          -4.1960    -0.1030     1.0070 na         1 0NY       0.001800
     21 N5          -4.1710    -1.2630     1.6620 nc         1 0NY      -0.514800
     22 C15         -3.7960    -2.1600     0.7680 cd         1 0NY       0.259300
     23 C16         -3.5800    -1.5500    -0.4850 cd         1 0NY      -0.231000
     24 C17         -3.6500    -3.5990     1.1270 c3         1 0NY      -0.120400
     25 H1           0.7910     3.3620     1.9960 h5         1 0NY       0.042100
     26 H2           2.1810    -2.3280    -1.8490 ha         1 0NY       0.120000
     27 H3           0.1790    -1.0140    -1.8050 ha         1 0NY       0.106000
     28 H4           5.8870     1.3830     1.4730 h1         1 0NY       0.034700
     29 H5           5.5100     0.9590    -0.2070 h1         1 0NY       0.034700
     30 H6           4.5720     2.2190     0.6270 h1         1 0NY       0.034700
     31 H7           4.4280    -2.7260    -2.2380 h1         1 0NY       0.042700
     32 H8           5.5220    -3.3510    -0.9930 h1         1 0NY       0.042700
     33 H9           3.7930    -3.7290    -0.9120 h1         1 0NY       0.042700
     34 H10         -1.3190     0.3020    -1.6570 hn         1 0NY       0.495000
     35 H11         -2.6350     2.2490     0.0770 h1         1 0NY       0.085700
     36 H12         -3.3880     3.6130    -1.8560 hc         1 0NY       0.046367
     37 H13         -1.6310     3.6460    -1.7100 hc         1 0NY       0.046367
     38 H14         -2.3970     2.6370    -2.9440 hc         1 0NY       0.046367
     39 H15         -4.6620     1.5630    -1.1500 hc         1 0NY       0.062700
     40 H16         -3.7140     0.5770    -2.2400 hc         1 0NY       0.062700
     41 H17         -4.4650     0.7370     1.4950 hn         1 0NY       0.371000
     42 H18         -3.2670    -2.0190    -1.4050 ha         1 0NY       0.137000
     43 H19         -2.6340    -3.9530     0.9440 hc         1 0NY       0.047033
     44 H20         -3.8780    -3.7620     2.1790 hc         1 0NY       0.047033
     45 H21         -4.3190    -4.2260     0.5360 hc         1 0NY       0.047033
@<TRIPOS>BOND
     1     1     2 ar  
     2     1     6 ar  
     3     1    10 ar  
     4     2     3 ar  
     5     2     9 ar  
     6     3     4 ar  
     7     3    15 1   
     8     4     5 ar  
     9     5     6 ar  
    10     5    25 1   
    11     7     8 ar  
    12     7    10 ar  
    13     7    13 1   
    14     8     9 ar  
    15     8    26 1   
    16     9    27 1   
    17    10    11 1   
    18    11    12 1   
    19    12    28 1   
    20    12    29 1   
    21    12    30 1   
    22    13    14 1   
    23    14    31 1   
    24    14    32 1   
    25    14    33 1   
    26    15    16 1   
    27    15    34 1   
    28    16    17 1   
    29    16    18 1   
    30    16    35 1   
    31    17    36 1   
    32    17    37 1   
    33    17    38 1   
    34    18    19 1   
    35    18    39 1   
    36    18    40 1   
    37    19    20 1   
    38    19    23 2   
    39    20    21 1   
    40    20    41 1   
    41    21    22 2   
    42    22    23 1   
    43    22    24 1   
    44    23    42 1   
    45    24    43 1   
    46    24    44 1   
    47    24    45 1   
@<TRIPOS>SUBSTRUCTURE
     1 0NY         1 TEMP              0 ****  ****    0 ROOT
