@<TRIPOS>MOLECULE
0O0
   53    56     1     0     0
SMALL
No Charge or Current Charge


@<TRIPOS>ATOM
      1 C13         -4.1790    -2.8460    83.1570 ca         1 0O0      -0.081000
      2 C15         -5.9020    -4.4580    83.7440 ca         1 0O0      -0.097000
      3 C17         -3.8560    -4.3260    85.0750 ca         1 0O0      -0.046300
      4 C24          4.4370    -3.6810    82.5250 cc         1 0O0      -0.415600
      5 C28          4.2020    -4.7560    83.4080 cc         1 0O0       0.352300
      6 C2           2.6820    -2.0080    83.3420 ca         1 0O0      -0.192600
      7 C3           2.7220    -0.9900    84.3020 ca         1 0O0      -0.015000
      8 C4           1.5940    -0.6970    85.0670 ca         1 0O0      -0.187000
      9 C5           0.4120    -1.4520    84.9310 ca         1 0O0       0.134600
     10 C6           0.3210    -2.4220    83.9110 ca         1 0O0      -0.218600
     11 C7           1.4610    -2.6870    83.0810 ca         1 0O0       0.061700
     12 C9          -2.0220    -1.6500    85.4140 c          1 0O0       0.624000
     13 C11         -1.0030    -3.1440    83.7480 c          1 0O0       0.595600
     14 C12         -3.3890    -3.2860    84.2360 ca         1 0O0       0.044600
     15 C14         -5.4330    -3.4290    82.9120 ca         1 0O0      -0.109000
     16 C16         -5.1160    -4.9040    84.8210 ca         1 0O0      -0.108000
     17 C18          1.3760    -3.6260    81.8670 c3         1 0O0      -0.059800
     18 C19         -3.0160    -4.8320    86.2440 c3         1 0O0      -0.047800
     19 C25          5.0820    -4.2120    81.4640 cd         1 0O0       0.167100
     20 C31          3.5310    -4.6390    84.7490 c3         1 0O0      -0.130400
     21 N8          -0.7550    -1.1090    85.6940 n          1 0O0      -0.303000
     22 N10         -2.1100    -2.6690    84.4620 n          1 0O0      -0.302600
     23 N26          5.2360    -5.5700    81.7450 na         1 0O0       0.109800
     24 N27          4.6810    -5.9080    82.9740 nd         1 0O0      -0.529800
     25 O23         -3.0230    -1.2610    86.0040 o          1 0O0      -0.540000
     26 O30          5.5060    -3.5950    80.3440 oh         1 0O0      -0.519100
     27 H1          -3.8200    -2.0490    82.5110 ha         1 0O0       0.121000
     28 H2          -6.8730    -4.9100    83.5560 ha         1 0O0       0.114000
     29 H3          -1.4650    -0.3330    87.5730 h1         1 0O0       0.058367
     30 H4           0.2890    -0.4920    87.4450 h1         1 0O0       0.058367
     31 H5          -0.5510     0.8200    86.5630 h1         1 0O0       0.058367
     32 H7           3.6400    -0.4260    84.4630 ha         1 0O0       0.126000
     33 H8           1.6710     0.1140    85.7840 ha         1 0O0       0.128000
     34 H9          -6.0400    -3.0840    82.0770 ha         1 0O0       0.116000
     35 H10         -5.4900    -5.7030    85.4570 ha         1 0O0       0.113000
     36 H11          1.3810    -4.6780    82.1740 hc         1 0O0       0.062033
     37 H12          0.4690    -3.4390    81.2820 hc         1 0O0       0.062033
     38 H13          2.1920    -3.4850    81.1520 hc         1 0O0       0.062033
     39 H14         -2.9090    -4.0600    87.0150 hc         1 0O0       0.045367
     40 H15         -3.4670    -5.7110    86.7190 hc         1 0O0       0.045367
     41 H16         -2.0110    -5.1200    85.9130 hc         1 0O0       0.045367
     42 H17          5.8830    -7.5520    81.3960 h1         1 0O0       0.061700
     43 H18          5.3430    -6.6560    79.9450 h1         1 0O0       0.061700
     44 H19          6.9200    -6.2730    80.6960 h1         1 0O0       0.061700
     45 H20          3.8660    -5.4370    85.4220 hc         1 0O0       0.055700
     46 H21          3.7700    -3.6850    85.2330 hc         1 0O0       0.055700
     47 H22          2.4430    -4.7220    84.6550 hc         1 0O0       0.055700
     48 H6           5.3270    -2.6360    80.4890 ho         1 0O0       0.534000
     49 O22         -1.1260    -4.1370    83.0440 o          1 0O0      -0.509000
     50 C20         -0.6160    -0.2260    86.8860 c3         1 0O0       0.083300
     51 C1           3.9610    -2.2900    82.6010 c          1 0O0       0.653300
     52 C29          5.8860    -6.5770    80.8940 c3         1 0O0       0.075900
     53 O21          4.4970    -1.4180    81.9290 o          1 0O0      -0.593100
@<TRIPOS>BOND
     1     1    14 ar  
     2     1    15 ar  
     3     1    27 1   
     4     2    15 ar  
     5     2    16 ar  
     6     2    28 1   
     7     3    14 ar  
     8     3    16 ar  
     9     3    18 1   
    10     4     5 1   
    11     4    19 2   
    12     4    51 1   
    13     5    20 1   
    14     5    24 2   
    15     6     7 ar  
    16     6    11 ar  
    17     6    51 1   
    18     7     8 ar  
    19     7    32 1   
    20     8     9 ar  
    21     8    33 1   
    22     9    10 ar  
    23     9    21 1   
    24    10    11 ar  
    25    10    13 1   
    26    11    17 1   
    27    12    21 1   
    28    12    22 1   
    29    12    25 2   
    30    13    22 1   
    31    13    49 2   
    32    14    22 1   
    33    15    34 1   
    34    16    35 1   
    35    17    36 1   
    36    17    37 1   
    37    17    38 1   
    38    18    39 1   
    39    18    40 1   
    40    18    41 1   
    41    19    23 1   
    42    19    26 1   
    43    20    45 1   
    44    20    46 1   
    45    20    47 1   
    46    21    50 1   
    47    23    24 1   
    48    23    52 1   
    49    26    48 1   
    50    29    50 1   
    51    30    50 1   
    52    31    50 1   
    53    42    52 1   
    54    43    52 1   
    55    44    52 1   
    56    51    53 2   
@<TRIPOS>SUBSTRUCTURE
     1 0O0         1 TEMP              0 ****  ****    0 ROOT
