@<TRIPOS>MOLECULE
0O0
   53    56     1     0     0
SMALL
abcg2


@<TRIPOS>ATOM
      1 C13         -4.4320    -2.4000    83.6140 ca         1 0O0      -0.081000
      2 C15         -6.0910    -4.0370    84.1670 ca         1 0O0      -0.097000
      3 C17         -3.8620    -4.2310    85.1010 ca         1 0O0      -0.046300
      4 C24          4.2670    -3.8160    82.3640 cc         1 0O0      -0.415600
      5 C28          4.1340    -4.9120    83.2650 cc         1 0O0       0.352300
      6 C2           2.3910    -2.2680    83.0440 ca         1 0O0      -0.192600
      7 C3           2.6110    -1.3570    84.0710 ca         1 0O0      -0.015000
      8 C4           1.6070    -1.0010    84.9390 ca         1 0O0      -0.187000
      9 C5           0.3330    -1.5520    84.7810 ca         1 0O0       0.134600
     10 C6           0.0950    -2.4580    83.7340 ca         1 0O0      -0.218600
     11 C7           1.1310    -2.8240    82.8460 ca         1 0O0       0.061700
     12 C9          -1.9530    -1.6680    85.5570 c          1 0O0       0.624000
     13 C11         -1.2550    -3.0130    83.5990 c          1 0O0       0.595600
     14 C12         -3.5200    -3.0700    84.4130 ca         1 0O0       0.044600
     15 C14         -5.7260    -2.8830    83.4890 ca         1 0O0      -0.109000
     16 C16         -5.1660    -4.6990    84.9620 ca         1 0O0      -0.108000
     17 C18          0.9260    -3.7700    81.6960 c3         1 0O0      -0.059800
     18 C19         -2.8680    -4.9550    85.9590 c3         1 0O0      -0.047800
     19 C25          5.3800    -4.1580    81.5870 cd         1 0O0       0.167100
     20 C31          3.1330    -5.1220    84.3460 c3         1 0O0      -0.130400
     21 N8          -0.6760    -1.1910    85.6570 n          1 0O0      -0.303000
     22 N10         -2.1870    -2.5540    84.5210 n          1 0O0      -0.302600
     23 N26          5.8190    -5.3340    82.0140 na         1 0O0       0.109800
     24 N27          5.0650    -5.8040    83.0430 nd         1 0O0      -0.529800
     25 O23         -2.8440    -1.3540    86.3160 o          1 0O0      -0.540000
     26 O30          5.9520    -3.5020    80.6030 oh         1 0O0      -0.519100
     27 H1          -4.1270    -1.5000    83.0940 ha         1 0O0       0.121000
     28 H2          -7.0980    -4.4250    84.0780 ha         1 0O0       0.114000
     29 H3          -1.2760    -0.1060    87.3300 h1         1 0O0       0.058367
     30 H4           0.3930    -0.6710    87.3900 h1         1 0O0       0.058367
     31 H5          -0.0520     0.6960    86.3470 h1         1 0O0       0.058367
     32 H7           3.5950    -0.9240    84.2060 ha         1 0O0       0.126000
     33 H8           1.8260    -0.2960    85.7260 ha         1 0O0       0.128000
     34 H9          -6.4410    -2.3620    82.8660 ha         1 0O0       0.116000
     35 H10         -5.4610    -5.6000    85.4870 ha         1 0O0       0.113000
     36 H11          0.6220    -4.7590    82.0340 hc         1 0O0       0.062033
     37 H12          0.1560    -3.4120    81.0160 hc         1 0O0       0.062033
     38 H13          1.8400    -3.8890    81.1190 hc         1 0O0       0.062033
     39 H14         -2.4750    -4.3170    86.7520 hc         1 0O0       0.045367
     40 H15         -3.3250    -5.8220    86.4320 hc         1 0O0       0.045367
     41 H16         -2.0150    -5.3090    85.3760 hc         1 0O0       0.045367
     42 H17          7.6250    -6.3130    82.3470 h1         1 0O0       0.061700
     43 H18          6.5800    -7.0580    81.1220 h1         1 0O0       0.061700
     44 H19          7.4550    -5.5660    80.7540 h1         1 0O0       0.061700
     45 H20          3.3930    -6.0050    84.9280 hc         1 0O0       0.055700
     46 H21          3.0850    -4.2670    85.0190 hc         1 0O0       0.055700
     47 H22          2.1320    -5.2700    83.9400 hc         1 0O0       0.055700
     48 H6           5.4640    -2.6600    80.5020 ho         1 0O0       0.534000
     49 O22         -1.6040    -3.8220    82.7670 o          1 0O0      -0.509000
     50 C20         -0.3810    -0.2640    86.7420 c3         1 0O0       0.083300
     51 C1           3.5620    -2.5870    82.1710 c          1 0O0       0.653300
     52 C29          6.9320    -6.1140    81.5320 c3         1 0O0       0.075900
     53 O21          3.9400    -1.7670    81.3340 o          1 0O0      -0.593100
@<TRIPOS>BOND
     1     1    14 ar  
     2     1    15 ar  
     3     1    27 1   
     4     2    15 ar  
     5     2    16 ar  
     6     2    28 1   
     7     3    14 ar  
     8     3    16 ar  
     9     3    18 1   
    10     4     5 1   
    11     4    19 2   
    12     4    51 1   
    13     5    20 1   
    14     5    24 2   
    15     6     7 ar  
    16     6    11 ar  
    17     6    51 1   
    18     7     8 ar  
    19     7    32 1   
    20     8     9 ar  
    21     8    33 1   
    22     9    10 ar  
    23     9    21 1   
    24    10    11 ar  
    25    10    13 1   
    26    11    17 1   
    27    12    21 1   
    28    12    22 1   
    29    12    25 2   
    30    13    22 1   
    31    13    49 2   
    32    14    22 1   
    33    15    34 1   
    34    16    35 1   
    35    17    36 1   
    36    17    37 1   
    37    17    38 1   
    38    18    39 1   
    39    18    40 1   
    40    18    41 1   
    41    19    23 1   
    42    19    26 1   
    43    20    45 1   
    44    20    46 1   
    45    20    47 1   
    46    21    50 1   
    47    23    24 1   
    48    23    52 1   
    49    26    48 1   
    50    29    50 1   
    51    30    50 1   
    52    31    50 1   
    53    42    52 1   
    54    43    52 1   
    55    44    52 1   
    56    51    53 2   
@<TRIPOS>SUBSTRUCTURE
     1 0O0         1 TEMP              0 ****  ****    0 ROOT
