@<TRIPOS>MOLECULE
0O1
   64    68     1     0     0
SMALL
No Charge or Current Charge


@<TRIPOS>ATOM
      1 C1          -0.6120     4.0590     0.7920 c3         1 0O1       0.164800
      2 N1          -0.8680     3.0750    -0.2760 n7         1 0O1      -0.867400
      3 C2          -1.4220     1.7850     0.1810 c3         1 0O1       0.159800
      4 C3          -1.6140     0.8190    -1.0060 c3         1 0O1      -0.012100
      5 C4          -2.1060    -0.5590    -0.5490 ca         1 0O1      -0.099300
      6 C5          -3.4900    -0.8680    -0.4040 ca         1 0O1       0.227400
      7 N2          -4.4400     0.1330    -0.6940 nc         1 0O1      -0.712100
      8 C6          -5.6700    -0.2750    -0.5210 cd         1 0O1       0.708800
      9 N3          -6.1140    -1.4720    -0.1210 ns         1 0O1      -0.454400
     10 C7          -5.2950    -2.4960     0.1810 c          1 0O1       0.592600
     11 C8          -3.8560    -2.1730     0.0340 ca         1 0O1      -0.235600
     12 C9          -2.8780    -3.1540     0.3280 ca         1 0O1       0.012000
     13 C10         -1.5300    -2.8140     0.1850 ca         1 0O1       0.076400
     14 C11         -1.1750    -1.5650    -0.2360 ca         1 0O1      -0.028200
     15 N4           0.1880    -1.5490    -0.2630 na         1 0O1      -0.359600
     16 C12          0.5990    -2.7970     0.1420 cc         1 0O1       0.663700
     17 N5          -0.4120    -3.6130     0.4290 nd         1 0O1      -0.644100
     18 N6           1.8860    -3.1840     0.2520 nu         1 0O1      -0.904400
     19 C13          3.0780    -2.3520     0.0510 c3         1 0O1       0.225800
     20 O1          -5.7220    -3.5830     0.5380 o          1 0O1      -0.542000
     21 C14         -0.0290     5.3770     0.2300 c5         1 0O1      -0.065700
     22 N7          -6.5900     0.6380    -0.7770 nv         1 0O1      -1.034200
     23 C15          4.3670    -3.1540     0.3160 c3         1 0O1      -0.042100
     24 C16          5.6170    -2.3070     0.1130 ca         1 0O1      -0.089300
     25 C17          7.3000    -0.7740     0.9920 ca         1 0O1      -0.108000
     26 C18          6.1510    -1.5610     1.1820 ca         1 0O1      -0.104000
     27 C19          7.9210    -0.7270    -0.2670 ca         1 0O1      -0.105000
     28 C20          6.2420    -2.2550    -1.1490 ca         1 0O1      -0.104000
     29 C21          7.3910    -1.4670    -1.3380 ca         1 0O1      -0.108000
     30 C22          0.2750     6.4460     1.3100 c5         1 0O1      -0.072400
     31 C23          1.3850     5.2580    -0.3990 c5         1 0O1      -0.072400
     32 C24          1.0110     7.5380     0.4830 c5         1 0O1      -0.081400
     33 C25          1.7680     6.7480    -0.6340 c5         1 0O1      -0.081400
     34 H1          -1.5470     4.2900     1.3210 h1         1 0O1       0.028200
     35 H2           0.0910     3.6460     1.5280 h1         1 0O1       0.028200
     36 H3          -1.5320     3.4910    -0.9380 hn         1 0O1       0.405000
     37 H5          -0.7430     1.3170     0.9080 h1         1 0O1       0.034700
     38 H6          -2.3890     1.9360     0.6800 h1         1 0O1       0.034700
     39 H7          -2.3080     1.2650    -1.7280 hc         1 0O1       0.051700
     40 H8          -0.6630     0.7220    -1.5420 hc         1 0O1       0.051700
     41 H9          -7.1020    -1.6520    -0.0550 hn         1 0O1       0.324500
     42 H10         -3.1550    -4.1500     0.6640 ha         1 0O1       0.149000
     43 H11          0.7930    -0.7880    -0.5240 hn         1 0O1       0.361000
     44 H13          1.9900    -4.1320     0.6060 hn         1 0O1       0.509000
     45 H14          3.0990    -1.9710    -0.9790 h1         1 0O1       0.041200
     46 H15          3.0480    -1.4880     0.7300 h1         1 0O1       0.041200
     47 H16         -0.7520     5.7630    -0.5000 hc         1 0O1       0.043700
     48 H17         -6.2070     1.5670    -0.8950 hn         1 0O1       0.485500
     49 H18         -7.4560     0.5880    -0.2540 hn         1 0O1       0.485500
     50 H19          4.3420    -3.5470     1.3400 hc         1 0O1       0.057700
     51 H20          4.3910    -4.0260    -0.3500 hc         1 0O1       0.057700
     52 H21          7.7090    -0.2000     1.8210 ha         1 0O1       0.115000
     53 H22          5.6750    -1.5900     2.1600 ha         1 0O1       0.112000
     54 H23          8.8100    -0.1170    -0.4140 ha         1 0O1       0.115000
     55 H24          5.8380    -2.8230    -1.9840 ha         1 0O1       0.112000
     56 H25          7.8700    -1.4310    -2.3140 ha         1 0O1       0.115000
     57 H26         -0.6340     6.8300     1.7870 hc         1 0O1       0.043700
     58 H27          0.9150     6.0470     2.1070 hc         1 0O1       0.043700
     59 H28          2.0900     4.7680     0.2840 hc         1 0O1       0.043700
     60 H29          1.3850     4.6810    -1.3310 hc         1 0O1       0.043700
     61 H30          0.2960     8.2420     0.0410 hc         1 0O1       0.040700
     62 H31          1.6920     8.1270     1.1080 hc         1 0O1       0.040700
     63 H32          2.8520     6.8970    -0.5830 hc         1 0O1       0.040700
     64 H33          1.4480     7.0840    -1.6270 hc         1 0O1       0.040700
@<TRIPOS>BOND
     1     1     2 1   
     2     1    21 1   
     3     1    34 1   
     4     1    35 1   
     5     2     3 1   
     6     2    36 1   
     7     3     4 1   
     8     3    37 1   
     9     3    38 1   
    10     4     5 1   
    11     4    39 1   
    12     4    40 1   
    13     5     6 ar  
    14     5    14 ar  
    15     6     7 1   
    16     6    11 ar  
    17     7     8 2   
    18     8     9 1   
    19     8    22 1   
    20     9    10 1   
    21     9    41 1   
    22    10    11 1   
    23    10    20 2   
    24    11    12 ar  
    25    12    13 ar  
    26    12    42 1   
    27    13    14 ar  
    28    13    17 1   
    29    14    15 1   
    30    15    16 1   
    31    15    43 1   
    32    16    17 2   
    33    16    18 1   
    34    18    19 1   
    35    18    44 1   
    36    19    23 1   
    37    19    45 1   
    38    19    46 1   
    39    21    30 1   
    40    21    31 1   
    41    21    47 1   
    42    22    48 1   
    43    22    49 1   
    44    23    24 1   
    45    23    50 1   
    46    23    51 1   
    47    24    26 ar  
    48    24    28 ar  
    49    25    26 ar  
    50    25    27 ar  
    51    25    52 1   
    52    26    53 1   
    53    27    29 ar  
    54    27    54 1   
    55    28    29 ar  
    56    28    55 1   
    57    29    56 1   
    58    30    32 1   
    59    30    57 1   
    60    30    58 1   
    61    31    33 1   
    62    31    59 1   
    63    31    60 1   
    64    32    33 1   
    65    32    61 1   
    66    32    62 1   
    67    33    63 1   
    68    33    64 1   
@<TRIPOS>SUBSTRUCTURE
     1 0O1         1 TEMP              0 ****  ****    0 ROOT
