@<TRIPOS>MOLECULE
0O1
   64    68     1     0     0
SMALL
abcg2


@<TRIPOS>ATOM
      1 C1          -0.8350     4.1040     0.4770 c3         1 0O1       0.164800
      2 N1          -0.8520     3.0350    -0.5010 n7         1 0O1      -0.867400
      3 C2          -1.3970     1.8000     0.0230 c3         1 0O1       0.159800
      4 C3          -1.4440     0.7190    -1.0540 c3         1 0O1      -0.012100
      5 C4          -1.9330    -0.5890    -0.5080 ca         1 0O1      -0.099300
      6 C5          -3.3050    -0.8600    -0.3310 ca         1 0O1       0.227400
      7 N2          -4.2020     0.1040    -0.7190 nc         1 0O1      -0.712100
      8 C6          -5.4610    -0.1330    -0.5670 cd         1 0O1       0.708800
      9 N3          -5.9410    -1.2960    -0.0290 ns         1 0O1      -0.454400
     10 C7          -5.1410    -2.3310     0.4020 c          1 0O1       0.592600
     11 C8          -3.7180    -2.0890     0.2350 ca         1 0O1      -0.235600
     12 C9          -2.8050    -3.0700     0.6410 ca         1 0O1       0.012000
     13 C10         -1.4640    -2.8140     0.4730 ca         1 0O1       0.076400
     14 C11         -1.0670    -1.5800    -0.0970 ca         1 0O1      -0.028200
     15 N4           0.3040    -1.6430    -0.1200 na         1 0O1      -0.359600
     16 C12          0.6650    -2.8550     0.4040 cc         1 0O1       0.663700
     17 N5          -0.3600    -3.5800     0.7740 nd         1 0O1      -0.644100
     18 N6           1.9520    -3.2380     0.4840 nu         1 0O1      -0.904400
     19 C13          3.0660    -2.3430     0.2520 c3         1 0O1       0.225800
     20 O1          -5.6400    -3.3410     0.8730 o          1 0O1      -0.542000
     21 C14         -0.2200     5.3740    -0.0920 c5         1 0O1      -0.065700
     22 N7          -6.3890     0.7570    -0.9850 nv         1 0O1      -1.034200
     23 C15          4.3770    -3.1220     0.2840 c3         1 0O1      -0.042100
     24 C16          5.5440    -2.2210    -0.0060 ca         1 0O1      -0.089300
     25 C17          7.1520    -0.5680     0.7220 ca         1 0O1      -0.108000
     26 C18          6.1010    -1.4310     0.9980 ca         1 0O1      -0.104000
     27 C19          7.6640    -0.4820    -0.5670 ca         1 0O1      -0.105000
     28 C20          6.0640    -2.1260    -1.2940 ca         1 0O1      -0.104000
     29 C21          7.1170    -1.2650    -1.5750 ca         1 0O1      -0.108000
     30 C22         -0.1680     6.5180     0.9520 c5         1 0O1      -0.072400
     31 C23          1.2360     5.1760    -0.5560 c5         1 0O1      -0.072400
     32 C24          1.3180     6.8300     1.1610 c5         1 0O1      -0.081400
     33 C25          1.9520     6.4710    -0.1790 c5         1 0O1      -0.081400
     34 H1          -1.8390     4.3280     0.8720 h1         1 0O1       0.028200
     35 H2          -0.2360     3.7760     1.3360 h1         1 0O1       0.028200
     36 H3          -1.4150     3.3320    -1.2910 hn         1 0O1       0.405000
     37 H5          -0.7560     1.4630     0.8450 h1         1 0O1       0.034700
     38 H6          -2.4060     1.9190     0.4460 h1         1 0O1       0.034700
     39 H7          -2.0950     1.0480    -1.8670 hc         1 0O1       0.051700
     40 H8          -0.4460     0.6040    -1.4870 hc         1 0O1       0.051700
     41 H9          -6.9410    -1.4320     0.0540 hn         1 0O1       0.324500
     42 H10         -3.1530    -3.9990     1.0740 ha         1 0O1       0.149000
     43 H11          0.9270    -0.9320    -0.4680 hn         1 0O1       0.361000
     44 H13          2.1180    -4.0490     1.0590 hn         1 0O1       0.509000
     45 H14          2.9610    -1.8770    -0.7310 h1         1 0O1       0.041200
     46 H15          3.0990    -1.5350     0.9930 h1         1 0O1       0.041200
     47 H16         -0.8310     5.6940    -0.9440 hc         1 0O1       0.043700
     48 H17         -6.0450     1.6790    -1.1970 hn         1 0O1       0.485500
     49 H18         -7.3130     0.7340    -0.5850 hn         1 0O1       0.485500
     50 H19          4.4940    -3.5880     1.2660 hc         1 0O1       0.057700
     51 H20          4.3310    -3.9280    -0.4520 hc         1 0O1       0.057700
     52 H21          7.5730     0.0380     1.5140 ha         1 0O1       0.115000
     53 H22          5.7120    -1.4950     2.0080 ha         1 0O1       0.112000
     54 H23          8.4870     0.1880    -0.7810 ha         1 0O1       0.115000
     55 H24          5.6430    -2.7360    -2.0850 ha         1 0O1       0.112000
     56 H25          7.5120    -1.2070    -2.5820 ha         1 0O1       0.115000
     57 H26         -0.6860     7.4020     0.5740 hc         1 0O1       0.043700
     58 H27         -0.6650     6.2430     1.8860 hc         1 0O1       0.043700
     59 H28          1.6840     4.3400    -0.0080 hc         1 0O1       0.043700
     60 H29          1.3150     4.9350    -1.6170 hc         1 0O1       0.043700
     61 H30          1.4950     7.8640     1.4630 hc         1 0O1       0.040700
     62 H31          1.7320     6.1900     1.9460 hc         1 0O1       0.040700
     63 H32          3.0370     6.3600    -0.1280 hc         1 0O1       0.040700
     64 H33          1.7400     7.2520    -0.9150 hc         1 0O1       0.040700
@<TRIPOS>BOND
     1     1     2 1   
     2     1    21 1   
     3     1    34 1   
     4     1    35 1   
     5     2     3 1   
     6     2    36 1   
     7     3     4 1   
     8     3    37 1   
     9     3    38 1   
    10     4     5 1   
    11     4    39 1   
    12     4    40 1   
    13     5     6 ar  
    14     5    14 ar  
    15     6     7 1   
    16     6    11 ar  
    17     7     8 2   
    18     8     9 1   
    19     8    22 1   
    20     9    10 1   
    21     9    41 1   
    22    10    11 1   
    23    10    20 2   
    24    11    12 ar  
    25    12    13 ar  
    26    12    42 1   
    27    13    14 ar  
    28    13    17 1   
    29    14    15 1   
    30    15    16 1   
    31    15    43 1   
    32    16    17 2   
    33    16    18 1   
    34    18    19 1   
    35    18    44 1   
    36    19    23 1   
    37    19    45 1   
    38    19    46 1   
    39    21    30 1   
    40    21    31 1   
    41    21    47 1   
    42    22    48 1   
    43    22    49 1   
    44    23    24 1   
    45    23    50 1   
    46    23    51 1   
    47    24    26 ar  
    48    24    28 ar  
    49    25    26 ar  
    50    25    27 ar  
    51    25    52 1   
    52    26    53 1   
    53    27    29 ar  
    54    27    54 1   
    55    28    29 ar  
    56    28    55 1   
    57    29    56 1   
    58    30    32 1   
    59    30    57 1   
    60    30    58 1   
    61    31    33 1   
    62    31    59 1   
    63    31    60 1   
    64    32    33 1   
    65    32    61 1   
    66    32    62 1   
    67    33    63 1   
    68    33    64 1   
@<TRIPOS>SUBSTRUCTURE
     1 0O1         1 TEMP              0 ****  ****    0 ROOT
