@<TRIPOS>MOLECULE
0O4
   50    53     1     0     0
SMALL
No Charge or Current Charge


@<TRIPOS>ATOM
      1 O1          -2.0430    -1.5740     0.8820 o          1 0O4      -0.603100
      2 C2          -1.5840    -0.4400     0.9030 c          1 0O4       0.611700
      3 N3          -2.4100     0.6610     0.9920 ns         1 0O4      -0.505900
      4 C4          -3.8790     0.6060     1.0330 c3         1 0O4       0.102000
      5 C5          -4.5090     0.2480    -0.3380 c3         1 0O4       0.147800
      6 N6          -5.9940     0.3220    -0.3850 n3         1 0O4      -0.723600
      7 C11         -6.5260     0.1730    -1.7760 c6         1 0O4       0.127800
      8 C10         -8.0800     0.2710    -1.8190 c6         1 0O4       0.153100
      9 O9          -8.6690    -0.7000    -0.9200 os         1 0O4      -0.450000
     10 C8          -8.2310    -0.5280     0.4490 c6         1 0O4       0.153100
     11 C7          -6.6790    -0.6390     0.5420 c6         1 0O4       0.127800
     12 C12         -0.0930    -0.1710     0.8370 ca         1 0O4      -0.143600
     13 C13          0.4430     1.1400     0.8670 ca         1 0O4      -0.079500
     14 C17          0.8050    -1.2580     0.7480 ca         1 0O4      -0.079500
     15 C16          2.1920    -1.0450     0.6840 ca         1 0O4      -0.094000
     16 C15          2.7350     0.2630     0.6960 cp         1 0O4      -0.125500
     17 C14          1.8310     1.3480     0.8030 ca         1 0O4      -0.094000
     18 C18          4.2160     0.4950     0.6440 cp         1 0O4       0.423500
     19 N19          4.7060     1.2690     1.6420 nb         1 0O4      -0.669000
     20 C20          6.0370     1.4850     1.7120 ca         1 0O4       0.329900
     21 C27          5.0660    -0.0550    -0.3660 ca         1 0O4      -0.079000
     22 C26          4.5710    -0.8070    -1.4580 ca         1 0O4      -0.082000
     23 C25          5.4530    -1.3300    -2.4200 ca         1 0O4      -0.112000
     24 C22          6.4570     0.1800    -0.2800 ca         1 0O4      -0.014000
     25 C21          6.9430     0.9570     0.7830 ca         1 0O4      -0.145000
     26 C23          7.3370    -0.3460    -1.2430 ca         1 0O4      -0.107000
     27 C24          6.8340    -1.1050    -2.3120 ca         1 0O4      -0.090000
     28 H1          -1.9640     1.5680     1.0090 hn         1 0O4       0.317500
     29 H2          -4.1810    -0.1330     1.7860 h1         1 0O4       0.061700
     30 H3          -4.2530     1.5870     1.3520 h1         1 0O4       0.061700
     31 H4          -4.0930     0.9430    -1.0800 h1         1 0O4       0.039200
     32 H5          -4.1780    -0.7590    -0.6260 h1         1 0O4       0.039200
     33 H7          -6.1070     0.9510    -2.4310 h1         1 0O4       0.043200
     34 H8          -6.2250    -0.7980    -2.1980 h1         1 0O4       0.043200
     35 H9          -8.4010     1.2800    -1.5240 h1         1 0O4       0.050200
     36 H10         -8.4400     0.0820    -2.8400 h1         1 0O4       0.050200
     37 H11         -8.5590     0.4560     0.8130 h1         1 0O4       0.050200
     38 H12         -8.7000    -1.2990     1.0760 h1         1 0O4       0.050200
     39 H13         -6.3860    -1.6730     0.3040 h1         1 0O4       0.043200
     40 H14         -6.3860    -0.4520     1.5840 h1         1 0O4       0.043200
     41 H15         -0.2010     2.0130     0.9410 ha         1 0O4       0.124000
     42 H16          0.4300    -2.2790     0.7320 ha         1 0O4       0.124000
     43 H17          2.8580    -1.9050     0.6310 ha         1 0O4       0.126000
     44 H18          2.2160     2.3650     0.8300 ha         1 0O4       0.126000
     45 H19          6.3860     2.1020     2.5390 h4         1 0O4       0.021100
     46 H20          3.5060    -0.9810    -1.5820 ha         1 0O4       0.126000
     47 H21          5.0620    -1.9080    -3.2550 ha         1 0O4       0.118000
     48 H22          8.0040     1.1640     0.8870 ha         1 0O4       0.124000
     49 H23          8.4070    -0.1650    -1.1680 ha         1 0O4       0.118000
     50 H24          7.5130    -1.5110    -3.0590 ha         1 0O4       0.117000
@<TRIPOS>BOND
     1     1     2 2   
     2     2     3 1   
     3     2    12 1   
     4     3     4 1   
     5     3    28 1   
     6     4     5 1   
     7     4    29 1   
     8     4    30 1   
     9     5     6 1   
    10     5    31 1   
    11     5    32 1   
    12     6     7 1   
    13     6    11 1   
    14     7     8 1   
    15     7    33 1   
    16     7    34 1   
    17     8     9 1   
    18     8    35 1   
    19     8    36 1   
    20     9    10 1   
    21    10    11 1   
    22    10    37 1   
    23    10    38 1   
    24    11    39 1   
    25    11    40 1   
    26    12    13 ar  
    27    12    14 ar  
    28    13    17 ar  
    29    13    41 1   
    30    14    15 ar  
    31    14    42 1   
    32    15    16 ar  
    33    15    43 1   
    34    16    17 ar  
    35    16    18 1   
    36    17    44 1   
    37    18    19 ar  
    38    18    21 ar  
    39    19    20 ar  
    40    20    25 ar  
    41    20    45 1   
    42    21    22 ar  
    43    21    24 ar  
    44    22    23 ar  
    45    22    46 1   
    46    23    27 ar  
    47    23    47 1   
    48    24    25 ar  
    49    24    26 ar  
    50    25    48 1   
    51    26    27 ar  
    52    26    49 1   
    53    27    50 1   
@<TRIPOS>SUBSTRUCTURE
     1 0O4         1 TEMP              0 ****  ****    0 ROOT
