@<TRIPOS>MOLECULE
0O4
   50    53     1     0     0
SMALL
abcg2


@<TRIPOS>ATOM
      1 O1          -1.9690    -1.6170     0.6470 o          1 0O4      -0.603100
      2 C2          -1.5870    -0.4630     0.7930 c          1 0O4       0.611700
      3 N3          -2.4210     0.5540     1.0600 ns         1 0O4      -0.505900
      4 C4          -3.8560     0.3950     1.1200 c3         1 0O4       0.102000
      5 C5          -4.5060     0.5520    -0.2540 c3         1 0O4       0.147800
      6 N6          -5.9380     0.3410    -0.1920 n3         1 0O4      -0.723600
      7 C11         -6.6380     0.9600    -1.3030 c6         1 0O4       0.127800
      8 C10         -8.1340     0.7690    -1.1410 c6         1 0O4       0.153100
      9 O9          -8.4770    -0.5970    -1.0520 os         1 0O4      -0.450000
     10 C8          -7.7950    -1.2170     0.0160 c6         1 0O4       0.153100
     11 C7          -6.2920    -1.0670    -0.1210 c6         1 0O4       0.127800
     12 C12         -0.1330    -0.1220     0.6960 ca         1 0O4      -0.143600
     13 C13          0.3270     1.1310     0.2960 ca         1 0O4      -0.079500
     14 C17          0.7950    -1.1190     0.9820 ca         1 0O4      -0.079500
     15 C16          2.1520    -0.8680     0.8810 ca         1 0O4      -0.094000
     16 C15          2.6150     0.3830     0.4750 cp         1 0O4      -0.125500
     17 C14          1.6850     1.3810     0.1930 ca         1 0O4      -0.094000
     18 C18          4.0630     0.6860     0.3910 cp         1 0O4       0.423500
     19 N19          4.4470     1.7790     1.0030 nb         1 0O4      -0.669000
     20 C20          5.7540     2.1080     1.0130 ca         1 0O4       0.329900
     21 C27          4.9710    -0.1580    -0.3170 ca         1 0O4      -0.079000
     22 C26          4.5740    -1.2810    -1.0810 ca         1 0O4      -0.082000
     23 C25          5.5050    -2.0460    -1.7280 ca         1 0O4      -0.112000
     24 C22          6.3470     0.1840    -0.2750 ca         1 0O4      -0.014000
     25 C21          6.7230     1.3500     0.4240 ca         1 0O4      -0.145000
     26 C23          7.2890    -0.6290    -0.9460 ca         1 0O4      -0.107000
     27 C24          6.8760    -1.7260    -1.6500 ca         1 0O4      -0.090000
     28 H1          -2.0470     1.4720     1.2340 hn         1 0O4       0.317500
     29 H2          -4.0840    -0.5790     1.5540 h1         1 0O4       0.061700
     30 H3          -4.2520     1.1510     1.7970 h1         1 0O4       0.061700
     31 H4          -4.3220     1.5700    -0.6060 h1         1 0O4       0.039200
     32 H5          -4.0180    -0.1230    -0.9760 h1         1 0O4       0.039200
     33 H7          -6.4190     2.0300    -1.3210 h1         1 0O4       0.043200
     34 H8          -6.3170     0.5440    -2.2740 h1         1 0O4       0.043200
     35 H9          -8.4710     1.3080    -0.2440 h1         1 0O4       0.050200
     36 H10         -8.6620     1.1830    -2.0010 h1         1 0O4       0.050200
     37 H11         -8.1140    -0.7880     0.9760 h1         1 0O4       0.050200
     38 H12         -8.0690    -2.2730     0.0100 h1         1 0O4       0.050200
     39 H13         -5.9440    -1.6140    -1.0140 h1         1 0O4       0.043200
     40 H14         -5.8180    -1.5330     0.7450 h1         1 0O4       0.043200
     41 H15         -0.3660     1.9210     0.0350 ha         1 0O4       0.124000
     42 H16          0.4570    -2.0960     1.2990 ha         1 0O4       0.124000
     43 H17          2.8560    -1.6500     1.1370 ha         1 0O4       0.126000
     44 H18          2.0260     2.3570    -0.1280 ha         1 0O4       0.126000
     45 H19          6.0080     3.0230     1.5360 h4         1 0O4       0.021100
     46 H20          3.5270    -1.5340    -1.1710 ha         1 0O4       0.126000
     47 H21          5.1890    -2.9020    -2.3090 ha         1 0O4       0.118000
     48 H22          7.7630     1.6440     0.4780 ha         1 0O4       0.124000
     49 H23          8.3380    -0.3640    -0.9000 ha         1 0O4       0.118000
     50 H24          7.5990    -2.3450    -2.1650 ha         1 0O4       0.117000
@<TRIPOS>BOND
     1     1     2 2   
     2     2     3 1   
     3     2    12 1   
     4     3     4 1   
     5     3    28 1   
     6     4     5 1   
     7     4    29 1   
     8     4    30 1   
     9     5     6 1   
    10     5    31 1   
    11     5    32 1   
    12     6     7 1   
    13     6    11 1   
    14     7     8 1   
    15     7    33 1   
    16     7    34 1   
    17     8     9 1   
    18     8    35 1   
    19     8    36 1   
    20     9    10 1   
    21    10    11 1   
    22    10    37 1   
    23    10    38 1   
    24    11    39 1   
    25    11    40 1   
    26    12    13 ar  
    27    12    14 ar  
    28    13    17 ar  
    29    13    41 1   
    30    14    15 ar  
    31    14    42 1   
    32    15    16 ar  
    33    15    43 1   
    34    16    17 ar  
    35    16    18 1   
    36    17    44 1   
    37    18    19 ar  
    38    18    21 ar  
    39    19    20 ar  
    40    20    25 ar  
    41    20    45 1   
    42    21    22 ar  
    43    21    24 ar  
    44    22    23 ar  
    45    22    46 1   
    46    23    27 ar  
    47    23    47 1   
    48    24    25 ar  
    49    24    26 ar  
    50    25    48 1   
    51    26    27 ar  
    52    26    49 1   
    53    27    50 1   
@<TRIPOS>SUBSTRUCTURE
     1 0O4         1 TEMP              0 ****  ****    0 ROOT
