@<TRIPOS>MOLECULE
0O5
   53    56     1     0     0
SMALL
abcg2


@<TRIPOS>ATOM
      1 O19          2.2240    -1.6080    -0.8890 o          1 0O5      -0.603100
      2 C18          1.8190    -0.4530    -0.8820 c          1 0O5       0.612700
      3 N20          2.6270     0.6070    -1.0400 ns         1 0O5      -0.505900
      4 C21          4.0660     0.4940    -1.1150 c3         1 0O5       0.101000
      5 C22          4.7130     0.5780     0.2670 c3         1 0O5       0.147800
      6 N23          6.1470     0.3860     0.1940 n3         1 0O5      -0.723600
      7 C28          6.8430     0.9510     1.3360 c6         1 0O5       0.127800
      8 C24          8.3410     0.7870     1.1590 c6         1 0O5       0.153100
      9 O26          8.6990    -0.5680     0.9940 os         1 0O5      -0.450000
     10 C25          8.0210    -1.1370    -0.1040 c6         1 0O5       0.153100
     11 C27          6.5160    -1.0110     0.0450 c6         1 0O5       0.127800
     12 C13          0.3630    -0.1560    -0.7080 ca         1 0O5      -0.144600
     13 C17         -0.1040     1.0170    -0.1180 ca         1 0O5      -0.079500
     14 C14         -1.4620     1.2190     0.0650 ca         1 0O5      -0.094000
     15 C16         -0.5580    -1.1210    -1.1080 ca         1 0O5      -0.079500
     16 C15         -1.9150    -0.9160    -0.9290 ca         1 0O5      -0.094000
     17 C9          -2.3840     0.2510    -0.3270 cp         1 0O5      -0.124500
     18 C4          -3.8330     0.5000    -0.1400 cp         1 0O5       0.430500
     19 N6          -4.2650     1.6630    -0.5550 nb         1 0O5      -0.677000
     20 C2          -5.5780     1.9790    -0.4630 ca         1 0O5       0.350300
     21 C1          -5.9620     3.3360    -0.9630 c3         1 0O5      -0.140400
     22 C7          -4.6880    -0.4680     0.4690 ca         1 0O5      -0.084000
     23 C12         -4.2380    -1.6850     1.0310 ca         1 0O5      -0.081000
     24 C11         -5.1270    -2.5610     1.5930 ca         1 0O5      -0.114000
     25 C10         -6.5040    -2.2610     1.6240 ca         1 0O5      -0.090000
     26 C8          -6.9650    -1.0790     1.1150 ca         1 0O5      -0.108000
     27 C5          -6.0670    -0.1510     0.5390 ca         1 0O5      -0.009000
     28 C3          -6.4940     1.1000     0.0480 ca         1 0O5      -0.147000
     29 H1           2.2300     1.5310    -1.0790 hn         1 0O5       0.317500
     30 H2           4.3180    -0.4420    -1.6110 h1         1 0O5       0.062700
     31 H3           4.4410     1.3030    -1.7420 h1         1 0O5       0.062700
     32 H4           4.5170     1.5720     0.6770 h1         1 0O5       0.038200
     33 H5           4.2320    -0.1430     0.9470 h1         1 0O5       0.038200
     34 H7           6.6120     2.0160     1.4130 h1         1 0O5       0.043450
     35 H8           6.5310     0.4790     2.2830 h1         1 0O5       0.043450
     36 H9           8.6690     1.3790     0.2930 h1         1 0O5       0.050200
     37 H10          8.8670     1.1590     2.0400 h1         1 0O5       0.050200
     38 H11          8.3320    -0.6530    -1.0400 h1         1 0O5       0.050200
     39 H12          8.3070    -2.1880    -0.1560 h1         1 0O5       0.050200
     40 H13          6.1780    -1.6110     0.9070 h1         1 0O5       0.043450
     41 H14          6.0450    -1.4350    -0.8440 h1         1 0O5       0.043450
     42 H15          0.5840     1.7760     0.2330 ha         1 0O5       0.124000
     43 H16         -1.8080     2.1310     0.5340 ha         1 0O5       0.126000
     44 H17         -0.2140    -2.0350    -1.5720 ha         1 0O5       0.124000
     45 H18         -2.6120    -1.6690    -1.2740 ha         1 0O5       0.126000
     46 H19         -5.7040     3.4480    -2.0170 hc         1 0O5       0.050367
     47 H20         -7.0300     3.5150    -0.8540 hc         1 0O5       0.050367
     48 H21         -5.4280     4.1150    -0.4170 hc         1 0O5       0.050367
     49 H22         -3.1840    -1.9250     1.0360 ha         1 0O5       0.125000
     50 H23         -4.7710    -3.4870     2.0230 ha         1 0O5       0.118000
     51 H24         -7.1940    -2.9680     2.0660 ha         1 0O5       0.116000
     52 H25         -8.0190    -0.8340     1.1560 ha         1 0O5       0.118000
     53 H26         -7.5430     1.3640     0.0930 ha         1 0O5       0.123000
@<TRIPOS>BOND
     1     1     2 2   
     2     2     3 1   
     3     2    12 1   
     4     3     4 1   
     5     3    29 1   
     6     4     5 1   
     7     4    30 1   
     8     4    31 1   
     9     5     6 1   
    10     5    32 1   
    11     5    33 1   
    12     6     7 1   
    13     6    11 1   
    14     7     8 1   
    15     7    34 1   
    16     7    35 1   
    17     8     9 1   
    18     8    36 1   
    19     8    37 1   
    20     9    10 1   
    21    10    11 1   
    22    10    38 1   
    23    10    39 1   
    24    11    40 1   
    25    11    41 1   
    26    12    13 ar  
    27    12    15 ar  
    28    13    14 ar  
    29    13    42 1   
    30    14    17 ar  
    31    14    43 1   
    32    15    16 ar  
    33    15    44 1   
    34    16    17 ar  
    35    16    45 1   
    36    17    18 1   
    37    18    19 ar  
    38    18    22 ar  
    39    19    20 ar  
    40    20    21 1   
    41    20    28 ar  
    42    21    46 1   
    43    21    47 1   
    44    21    48 1   
    45    22    23 ar  
    46    22    27 ar  
    47    23    24 ar  
    48    23    49 1   
    49    24    25 ar  
    50    24    50 1   
    51    25    26 ar  
    52    25    51 1   
    53    26    27 ar  
    54    26    52 1   
    55    27    28 ar  
    56    28    53 1   
@<TRIPOS>SUBSTRUCTURE
     1 0O5         1 TEMP              0 ****  ****    0 ROOT
