@<TRIPOS>MOLECULE
0O5
   53    56     1     0     0
SMALL
No Charge or Current Charge


@<TRIPOS>ATOM
      1 O19          2.2940    -1.3730    -1.1090 o          1 0O5      -0.603100
      2 C18          1.8230    -0.2690    -0.8730 c          1 0O5       0.612700
      3 N20          2.6340     0.8400    -0.7520 ns         1 0O5      -0.505900
      4 C21          4.1010     0.8200    -0.8510 c3         1 0O5       0.101000
      5 C22          4.7820     0.1920     0.3920 c3         1 0O5       0.147800
      6 N23          6.2660     0.2800     0.4070 n3         1 0O5      -0.723600
      7 C28          6.8480    -0.1500     1.7180 c6         1 0O5       0.127800
      8 C24          8.4020    -0.0360     1.7310 c6         1 0O5       0.153100
      9 O26          8.9680    -0.7860     0.6300 os         1 0O5      -0.450000
     10 C25          8.4820    -0.3370    -0.6580 c6         1 0O5       0.153100
     11 C27          6.9290    -0.4530    -0.7230 c6         1 0O5       0.127800
     12 C13          0.3320    -0.0460    -0.7040 ca         1 0O5      -0.144600
     13 C17         -0.2170     1.2320    -0.4380 ca         1 0O5      -0.079500
     14 C14         -1.6050     1.3970    -0.2870 ca         1 0O5      -0.094000
     15 C16         -0.5510    -1.1430    -0.8200 ca         1 0O5      -0.079500
     16 C15         -1.9370    -0.9720    -0.6680 ca         1 0O5      -0.094000
     17 C9          -2.4930     0.2990    -0.3840 cp         1 0O5      -0.124500
     18 C4          -3.9740     0.4890    -0.2370 cp         1 0O5       0.430500
     19 N6          -4.5050     1.4500    -1.0290 nb         1 0O5      -0.677000
     20 C2          -5.8370     1.6550    -1.0150 ca         1 0O5       0.350300
     21 C1          -6.3580     2.7400    -1.9380 c3         1 0O5      -0.140400
     22 C7          -4.7840    -0.2790     0.6560 ca         1 0O5      -0.084000
     23 C12         -4.2450    -1.2390     1.5460 ca         1 0O5      -0.081000
     24 C11         -5.0890    -1.9700     2.4000 ca         1 0O5      -0.114000
     25 C10         -6.4760    -1.7490     2.3850 ca         1 0O5      -0.090000
     26 C8          -7.0200    -0.7870     1.5200 ca         1 0O5      -0.108000
     27 C5          -6.1780    -0.0530     0.6660 ca         1 0O5      -0.009000
     28 C3          -6.7070     0.9250    -0.1900 ca         1 0O5      -0.147000
     29 H1           2.1780     1.7220    -0.5620 hn         1 0O5       0.317500
     30 H2           4.3840     0.2630    -1.7520 h1         1 0O5       0.062700
     31 H3           4.4540     1.8530    -0.9670 h1         1 0O5       0.062700
     32 H4           4.3850     0.7080     1.2770 h1         1 0O5       0.038200
     33 H5           4.4710    -0.8580     0.4720 h1         1 0O5       0.038200
     34 H7           6.4440     0.4660     2.5350 h1         1 0O5       0.043450
     35 H8           6.5710    -1.1920     1.9350 h1         1 0O5       0.043450
     36 H9           8.7020     1.0180     1.6460 h1         1 0O5       0.050200
     37 H10          8.7980    -0.4300     2.6770 h1         1 0O5       0.050200
     38 H11          8.7870     0.7070    -0.8170 h1         1 0O5       0.050200
     39 H12          8.9360    -0.9500    -1.4480 h1         1 0O5       0.050200
     40 H13          6.6550    -1.5180    -0.7000 h1         1 0O5       0.043450
     41 H14          6.5980    -0.0550    -1.6930 h1         1 0O5       0.043450
     42 H15          0.4140     2.1110    -0.3460 ha         1 0O5       0.124000
     43 H16         -2.0010     2.3900    -0.0850 ha         1 0O5       0.126000
     44 H17         -0.1650    -2.1380    -1.0330 ha         1 0O5       0.124000
     45 H18         -2.5910    -1.8350    -0.7780 ha         1 0O5       0.126000
     46 H19         -5.8000     2.7650    -2.8820 hc         1 0O5       0.050367
     47 H20         -7.4140     2.5810    -2.1840 hc         1 0O5       0.050367
     48 H21         -6.2680     3.7260    -1.4680 hc         1 0O5       0.050367
     49 H22         -3.1750    -1.4180     1.5970 ha         1 0O5       0.125000
     50 H23         -4.6650    -2.7060     3.0800 ha         1 0O5       0.118000
     51 H24         -7.1250    -2.3160     3.0480 ha         1 0O5       0.116000
     52 H25         -8.0940    -0.6100     1.5180 ha         1 0O5       0.118000
     53 H26         -7.7740     1.1290    -0.2090 ha         1 0O5       0.123000
@<TRIPOS>BOND
     1     1     2 2   
     2     2     3 1   
     3     2    12 1   
     4     3     4 1   
     5     3    29 1   
     6     4     5 1   
     7     4    30 1   
     8     4    31 1   
     9     5     6 1   
    10     5    32 1   
    11     5    33 1   
    12     6     7 1   
    13     6    11 1   
    14     7     8 1   
    15     7    34 1   
    16     7    35 1   
    17     8     9 1   
    18     8    36 1   
    19     8    37 1   
    20     9    10 1   
    21    10    11 1   
    22    10    38 1   
    23    10    39 1   
    24    11    40 1   
    25    11    41 1   
    26    12    13 ar  
    27    12    15 ar  
    28    13    14 ar  
    29    13    42 1   
    30    14    17 ar  
    31    14    43 1   
    32    15    16 ar  
    33    15    44 1   
    34    16    17 ar  
    35    16    45 1   
    36    17    18 1   
    37    18    19 ar  
    38    18    22 ar  
    39    19    20 ar  
    40    20    21 1   
    41    20    28 ar  
    42    21    46 1   
    43    21    47 1   
    44    21    48 1   
    45    22    23 ar  
    46    22    27 ar  
    47    23    24 ar  
    48    23    49 1   
    49    24    25 ar  
    50    24    50 1   
    51    25    26 ar  
    52    25    51 1   
    53    26    27 ar  
    54    26    52 1   
    55    27    28 ar  
    56    28    53 1   
@<TRIPOS>SUBSTRUCTURE
     1 0O5         1 TEMP              0 ****  ****    0 ROOT
