@<TRIPOS>MOLECULE
0O6
  174   182     1     0     0
SMALL
No Charge or Current Charge


@<TRIPOS>ATOM
      1 C           37.5950   -13.4780    10.1800 c          1 0O6       0.562100
      2 N           40.0090   -13.0640     9.3230 n7         1 0O6      -0.867900
      3 O           36.9300   -14.0630     9.3310 o          1 0O6      -0.627100
      4 CA          38.7350   -12.4480     9.8370 c3         1 0O6       0.117000
      5 CB          38.2400   -11.3230     8.8870 c3         1 0O6      -0.071900
      6 CAA         37.0980   -10.4700     9.4810 c3         1 0O6      -0.094600
      7 CAC         39.9310   -13.8340     8.0590 c3         1 0O6       0.147600
      8 OAH         31.7210   -24.7990    17.0040 o          1 0O6      -0.609600
      9 CAM         30.0940    -7.4940    15.8590 ca         1 0O6      -0.102500
     10 CAN         33.5230   -26.1490    10.2650 ca         1 0O6      -0.102500
     11 CAO         31.1570    -7.8220    16.7160 ca         1 0O6      -0.115500
     12 CAP         29.4070    -8.5110    15.1760 ca         1 0O6      -0.115500
     13 CAQ         33.4220   -24.8090    10.6730 ca         1 0O6      -0.115500
     14 CAR         33.4670   -27.1780    11.2210 ca         1 0O6      -0.115500
     15 CAS         31.5340    -9.1650    16.8910 ca         1 0O6      -0.091500
     16 CAT         29.7830    -9.8540    15.3490 ca         1 0O6      -0.091500
     17 CAU         33.2670   -24.4950    12.0350 ca         1 0O6      -0.091500
     18 CAV         33.3130   -26.8660    12.5840 ca         1 0O6      -0.091500
     19 CAW         31.3020   -18.1580    17.1360 ca         1 0O6      -0.106250
     20 CAX         32.6770   -18.1940    16.8540 ca         1 0O6      -0.106250
     21 CAY         31.7830   -18.3720    19.5050 ca         1 0O6      -0.106250
     22 CAZ         33.1600   -18.3850    19.2240 ca         1 0O6      -0.106250
     23 CBA         30.3170   -13.0190    18.3840 cc         1 0O6      -0.193000
     24 CBB         33.9540   -22.8460    15.1500 cc         1 0O6      -0.193000
     25 CBD         22.7280   -25.1340    20.0670 c3         1 0O6      -0.071900
     26 CBE         28.7460   -16.8220    18.6840 c3         1 0O6      -0.071400
     27 CBF         35.8770   -19.5280    18.1330 c3         1 0O6      -0.071400
     28 CBG         29.2670   -15.8680    19.7870 c3         1 0O6      -0.095400
     29 CBH         35.3690   -20.8980    17.6220 c3         1 0O6      -0.095400
     30 CBI         37.1790   -14.6890    14.5760 c3         1 0O6       0.158600
     31 CBJ         29.4330   -24.7810    20.3510 c3         1 0O6       0.158600
     32 CBK         29.3500   -18.2410    18.7580 c3         1 0O6      -0.031600
     33 CBL         35.1140   -18.3000    17.5800 c3         1 0O6      -0.031600
     34 CBM         36.2040   -16.7700    13.4040 c3         1 0O6      -0.064400
     35 CBN         29.1220   -22.2330    20.1530 c3         1 0O6      -0.064400
     36 CBO         34.7590   -16.6570    13.9310 c3         1 0O6      -0.098900
     37 CBP         30.0560   -21.9950    18.9460 c3         1 0O6      -0.098900
     38 CBQ         32.3280   -15.9710    13.6070 c5         1 0O6      -0.088900
     39 CBR         30.3250   -21.5770    16.4370 c5         1 0O6      -0.088900
     40 CBS         31.6600   -14.6640    13.1290 c5         1 0O6      -0.083400
     41 CBT         29.8610   -22.3940    15.2110 c5         1 0O6      -0.083400
     42 CBU         28.6730   -14.4430    19.7100 c3         1 0O6       0.082600
     43 CBV         35.5720   -21.1260    16.1050 c3         1 0O6       0.082600
     44 NBW         29.0180   -12.8490    16.5670 nd         1 0O6      -0.354500
     45 NBX         35.3440   -24.5860    15.3900 nd         1 0O6      -0.354500
     46 NBY         28.3430   -13.5660    17.4240 nc         1 0O6      -0.211800
     47 NBZ         36.0040   -23.5380    15.8050 nc         1 0O6      -0.211800
     48 NCB         24.2570   -26.0470    21.8500 n7         1 0O6      -0.867900
     49 NCC         31.6590   -12.2500    15.1260 ns         1 0O6      -0.498900
     50 NCD         31.6760   -24.7190    14.7190 ns         1 0O6      -0.498900
     51 NCE         37.3730   -13.6680    11.5270 ns         1 0O6      -0.478900
     52 NCF         26.2930   -24.6950    19.3880 ns         1 0O6      -0.478900
     53 CCH         25.1990   -24.3360    20.1470 c          1 0O6       0.562100
     54 CCI         32.6490   -13.1980    14.9810 c          1 0O6       0.594100
     55 CCJ         31.1410   -24.4940    15.9700 c          1 0O6       0.594100
     56 CCK         35.1060   -13.7030    12.5740 c          1 0O6       0.559500
     57 CCL         28.0700   -24.2650    17.6870 c          1 0O6       0.559500
     58 CCM         30.8450   -18.2580    18.4620 ca         1 0O6      -0.081300
     59 CCN         33.6190   -18.3020    17.8940 ca         1 0O6      -0.081300
     60 CCO         30.8500   -10.1930    16.2080 ca         1 0O6      -0.106800
     61 CCP         33.2140   -25.5230    13.0010 ca         1 0O6      -0.106800
     62 CCQ         30.2320   -12.4910    17.1270 cd         1 0O6       0.187300
     63 CCR         34.0790   -24.1990    14.9910 cd         1 0O6       0.187300
     64 CCS         36.9640   -15.4330    13.2280 c3         1 0O6      -0.081700
     65 CCT         28.4160   -23.6140    20.1990 c3         1 0O6      -0.081700
     66 CCV         24.1880   -25.5050    20.4470 c3         1 0O6       0.117000
     67 CCW         33.7820   -15.8330    13.0590 c5         1 0O6       0.126200
     68 CCX         29.3730   -22.0820    17.5620 c5         1 0O6       0.126200
     69 CCY         32.7500   -13.6110    13.4780 c5         1 0O6       0.030200
     70 CCZ         29.7370   -23.8190    15.8280 c5         1 0O6       0.030200
     71 CDA         31.2680   -11.6500    16.4050 c3         1 0O6       0.151700
     72 CDB         33.0440   -25.1870    14.4790 c3         1 0O6       0.151700
     73 CDC         36.3370   -14.5470    12.1100 c3         1 0O6       0.048700
     74 CDD         27.4060   -23.7930    19.0190 c3         1 0O6       0.048700
     75 NDE         33.9910   -14.3660    13.1330 n          1 0O6      -0.392300
     76 NDF         29.0990   -23.4750    17.1310 n          1 0O6      -0.392300
     77 NDG         29.1250   -13.6810    18.5340 na         1 0O6       0.118800
     78 NDH         35.1630   -22.4720    15.6740 na         1 0O6       0.118800
     79 HN          40.3810   -13.6930    10.0500 hn         1 0O6       0.418000
     80 HA          38.9740   -11.9480    10.7860 h1         1 0O6       0.064200
     81 HB          39.0810   -10.6600     8.6470 hc         1 0O6       0.056200
     82 HBA         37.8980   -11.7580     7.9400 hc         1 0O6       0.056200
     83 HAA         36.8200    -9.6690     8.7850 hc         1 0O6       0.037200
     84 HAAA        36.2060   -11.0790     9.6700 hc         1 0O6       0.037200
     85 HAAB        37.4090   -10.0080    10.4260 hc         1 0O6       0.037200
     86 HAB         21.4820   -24.6230    18.3500 hc         1 0O6       0.037200
     87 HABA        23.1280   -23.9650    18.2550 hc         1 0O6       0.037200
     88 HABB        22.8410   -25.6960    17.9550 hc         1 0O6       0.037200
     89 HAC         40.9230   -14.2140     7.7810 h1         1 0O6       0.037200
     90 HACA        39.2600   -14.6980     8.1590 h1         1 0O6       0.037200
     91 HACB        39.5700   -13.2100     7.2310 h1         1 0O6       0.037200
     92 HAD         24.0130   -25.6240    23.9230 h1         1 0O6       0.037200
     93 HADA        24.6610   -24.2720    22.9770 h1         1 0O6       0.037200
     94 HADB        22.9360   -24.6980    22.8630 h1         1 0O6       0.037200
     95 HOAL        29.4500   -26.6970    20.7680 ho         1 0O6       0.445000
     96 HAM         29.8030    -6.4540    15.7250 ha         1 0O6       0.113000
     97 HAN         33.6440   -26.3910     9.2110 ha         1 0O6       0.113000
     98 HAO         31.6900    -7.0350    17.2470 ha         1 0O6       0.115000
     99 HAP         28.5830    -8.2580    14.5130 ha         1 0O6       0.115000
    100 HAQ         33.4640   -24.0110     9.9330 ha         1 0O6       0.115000
    101 HAR         33.5430   -28.2160    10.9070 ha         1 0O6       0.115000
    102 HAS         32.3590    -9.4040    17.5580 ha         1 0O6       0.127000
    103 HAT         29.2390   -10.6310    14.8160 ha         1 0O6       0.127000
    104 HAU         33.1890   -23.4530    12.3370 ha         1 0O6       0.127000
    105 HAV         33.2690   -27.6720    13.3150 ha         1 0O6       0.127000
    106 HAW         30.5900   -18.0610    16.3200 ha         1 0O6       0.109750
    107 HAX         33.0060   -18.1330    15.8220 ha         1 0O6       0.109750
    108 HAY         31.4460   -18.4420    20.5370 ha         1 0O6       0.109750
    109 HAZ         33.8700   -18.4560    20.0450 ha         1 0O6       0.109750
    110 HBAA        31.0890   -12.9790    19.1390 h4         1 0O6       0.169500
    111 HBB         33.1380   -22.1630    14.9590 h4         1 0O6       0.169500
    112 HBD         22.4020   -24.2610    20.6430 hc         1 0O6       0.056200
    113 HBDA        22.0650   -25.9630    20.3430 hc         1 0O6       0.056200
    114 HBE         28.9580   -16.3990    17.6940 hc         1 0O6       0.053450
    115 HBEA        27.6540   -16.8990    18.7660 hc         1 0O6       0.053450
    116 HBF         36.9410   -19.4260    17.8820 hc         1 0O6       0.053450
    117 HBFA        35.8240   -19.5210    19.2290 hc         1 0O6       0.053450
    118 HBG         29.0220   -16.2950    20.7680 hc         1 0O6       0.057950
    119 HBGA        30.3610   -15.8010    19.7370 hc         1 0O6       0.057950
    120 HBH         35.9020   -21.6870    18.1680 hc         1 0O6       0.057950
    121 HBHA        34.3060   -21.0150    17.8680 hc         1 0O6       0.057950
    122 HBI         37.5820   -15.3990    15.3120 h1         1 0O6       0.034450
    123 HBIA        36.2180   -14.3270    14.9640 h1         1 0O6       0.034450
    124 HBJ         30.1330   -24.5350    21.1600 h1         1 0O6       0.034450
    125 HBJA        30.0240   -24.8880    19.4320 h1         1 0O6       0.034450
    126 HBK         29.1450   -18.6710    19.7470 hc         1 0O6       0.048450
    127 HBKA        28.8270   -18.8820    18.0380 hc         1 0O6       0.048450
    128 HBL         35.5660   -17.3940    18.0010 hc         1 0O6       0.048450
    129 HBLA        35.2820   -18.2370    16.4990 hc         1 0O6       0.048450
    130 HBM         36.1890   -17.3020    12.4440 hc         1 0O6       0.049450
    131 HBMA        36.7730   -17.4100    14.0910 hc         1 0O6       0.049450
    132 HBN         29.7060   -22.1050    21.0730 hc         1 0O6       0.049450
    133 HBNA        28.3610   -21.4420    20.1710 hc         1 0O6       0.049450
    134 HBO         34.3730   -17.6800    14.0120 hc         1 0O6       0.062700
    135 HBOA        34.7730   -16.2560    14.9520 hc         1 0O6       0.062700
    136 HBP         30.4970   -20.9990    19.0650 hc         1 0O6       0.062700
    137 HBPA        30.8990   -22.6950    18.9910 hc         1 0O6       0.062700
    138 HBQ         31.8240   -16.8660    13.2250 hc         1 0O6       0.059450
    139 HBQA        32.3080   -16.0350    14.7010 hc         1 0O6       0.059450
    140 HBR         31.3780   -21.7730    16.6740 hc         1 0O6       0.059450
    141 HBRA        30.2280   -20.5010    16.2710 hc         1 0O6       0.059450
    142 HBS         31.4720   -14.6920    12.0490 hc         1 0O6       0.062700
    143 HBSA        30.6990   -14.4740    13.6210 hc         1 0O6       0.062700
    144 HBT         28.8890   -22.0390    14.8480 hc         1 0O6       0.062700
    145 HBTA        30.5580   -22.3280    14.3680 hc         1 0O6       0.062700
    146 HBU         27.5770   -14.4980    19.7040 h1         1 0O6       0.069700
    147 HBUA        28.9710   -13.8840    20.6070 h1         1 0O6       0.069700
    148 HBV         34.9890   -20.3900    15.5380 h1         1 0O6       0.069700
    149 HBVA        36.6300   -20.9860    15.8500 h1         1 0O6       0.069700
    150 HNCB        25.2080   -26.4110    22.0070 hn         1 0O6       0.418000
    151 HNCC        31.1480   -11.9810    14.2950 hn         1 0O6       0.324500
    152 HNCD        31.1100   -24.4690    13.9170 hn         1 0O6       0.324500
    153 HNCE        37.9550   -13.1480    12.1760 hn         1 0O6       0.337000
    154 HNCF        26.3690   -25.6680    19.1140 hn         1 0O6       0.337000
    155 HCS         37.9620   -15.7250    12.8750 hc         1 0O6       0.080200
    156 HCT         27.8270   -23.5960    21.1240 hc         1 0O6       0.080200
    157 HCV         24.4730   -26.3210    19.7680 h1         1 0O6       0.064200
    158 HCW         33.8350   -16.1780    12.0160 h1         1 0O6       0.055700
    159 HCX         28.4480   -21.4880    17.5680 h1         1 0O6       0.055700
    160 HCY         32.6300   -12.7080    12.8640 h1         1 0O6       0.086700
    161 HCZ         29.1080   -24.4670    15.2040 h1         1 0O6       0.086700
    162 HDA         32.1590   -11.6470    17.0470 h1         1 0O6       0.091200
    163 HDB         33.1760   -26.1110    15.0590 h1         1 0O6       0.091200
    164 HDC         35.9700   -15.2120    11.3180 h1         1 0O6       0.092200
    165 HDD         26.9600   -22.8140    18.7980 h1         1 0O6       0.092200
    166 OAG         33.3380   -13.5910    15.9150 o          1 0O6      -0.609600
    167 OAI         35.1000   -12.4790    12.4830 o          1 0O6      -0.582000
    168 OAK         38.0930   -13.5960    14.4070 oh         1 0O6      -0.679000
    169 OAJ         27.7340   -25.3120    17.1400 o          1 0O6      -0.582000
    170 HOAK        38.2320   -13.1990    15.2960 ho         1 0O6       0.445000
    171 CAB         22.5360   -24.8360    18.5640 c3         1 0O6      -0.094600
    172 CAD         23.9500   -25.1090    22.9550 c3         1 0O6       0.147600
    173 OAF         25.0370   -23.1820    20.5310 o          1 0O6      -0.627100
    174 OAL         28.7580   -26.0090    20.6560 oh         1 0O6      -0.679000
@<TRIPOS>BOND
     1     1     3 2   
     2     1     4 1   
     3     1    51 1   
     4     2     4 1   
     5     2     7 1   
     6     2    79 1   
     7     4     5 1   
     8     4    80 1   
     9     5     6 1   
    10     5    81 1   
    11     5    82 1   
    12     6    83 1   
    13     6    84 1   
    14     6    85 1   
    15     7    89 1   
    16     7    90 1   
    17     7    91 1   
    18     8    55 2   
    19     9    11 ar  
    20     9    12 ar  
    21     9    96 1   
    22    10    13 ar  
    23    10    14 ar  
    24    10    97 1   
    25    11    15 ar  
    26    11    98 1   
    27    12    16 ar  
    28    12    99 1   
    29    13    17 ar  
    30    13   100 1   
    31    14    18 ar  
    32    14   101 1   
    33    15    60 ar  
    34    15   102 1   
    35    16    60 ar  
    36    16   103 1   
    37    17    61 ar  
    38    17   104 1   
    39    18    61 ar  
    40    18   105 1   
    41    19    20 ar  
    42    19    58 ar  
    43    19   106 1   
    44    20    59 ar  
    45    20   107 1   
    46    21    22 ar  
    47    21    58 ar  
    48    21   108 1   
    49    22    59 ar  
    50    22   109 1   
    51    23    62 2   
    52    23    77 1   
    53    23   110 1   
    54    24    63 2   
    55    24    78 1   
    56    24   111 1   
    57    25    66 1   
    58    25   112 1   
    59    25   113 1   
    60    25   171 1   
    61    26    28 1   
    62    26    32 1   
    63    26   114 1   
    64    26   115 1   
    65    27    29 1   
    66    27    33 1   
    67    27   116 1   
    68    27   117 1   
    69    28    42 1   
    70    28   118 1   
    71    28   119 1   
    72    29    43 1   
    73    29   120 1   
    74    29   121 1   
    75    30    64 1   
    76    30   122 1   
    77    30   123 1   
    78    30   168 1   
    79    31    65 1   
    80    31   124 1   
    81    31   125 1   
    82    31   174 1   
    83    32    58 1   
    84    32   126 1   
    85    32   127 1   
    86    33    59 1   
    87    33   128 1   
    88    33   129 1   
    89    34    36 1   
    90    34    64 1   
    91    34   130 1   
    92    34   131 1   
    93    35    37 1   
    94    35    65 1   
    95    35   132 1   
    96    35   133 1   
    97    36    67 1   
    98    36   134 1   
    99    36   135 1   
   100    37    68 1   
   101    37   136 1   
   102    37   137 1   
   103    38    40 1   
   104    38    67 1   
   105    38   138 1   
   106    38   139 1   
   107    39    41 1   
   108    39    68 1   
   109    39   140 1   
   110    39   141 1   
   111    40    69 1   
   112    40   142 1   
   113    40   143 1   
   114    41    70 1   
   115    41   144 1   
   116    41   145 1   
   117    42    77 1   
   118    42   146 1   
   119    42   147 1   
   120    43    78 1   
   121    43   148 1   
   122    43   149 1   
   123    44    46 2   
   124    44    62 1   
   125    45    47 2   
   126    45    63 1   
   127    46    77 1   
   128    47    78 1   
   129    48    66 1   
   130    48   150 1   
   131    48   172 1   
   132    49    54 1   
   133    49    71 1   
   134    49   151 1   
   135    50    55 1   
   136    50    72 1   
   137    50   152 1   
   138    51    73 1   
   139    51   153 1   
   140    52    53 1   
   141    52    74 1   
   142    52   154 1   
   143    53    66 1   
   144    53   173 2   
   145    54    69 1   
   146    54   166 2   
   147    55    70 1   
   148    56    73 1   
   149    56    75 1   
   150    56   167 2   
   151    57    74 1   
   152    57    76 1   
   153    57   169 2   
   154    60    71 1   
   155    61    72 1   
   156    62    71 1   
   157    63    72 1   
   158    64    73 1   
   159    64   155 1   
   160    65    74 1   
   161    65   156 1   
   162    66   157 1   
   163    67    75 1   
   164    67   158 1   
   165    68    76 1   
   166    68   159 1   
   167    69    75 1   
   168    69   160 1   
   169    70    76 1   
   170    70   161 1   
   171    71   162 1   
   172    72   163 1   
   173    73   164 1   
   174    74   165 1   
   175    86   171 1   
   176    87   171 1   
   177    88   171 1   
   178    92   172 1   
   179    93   172 1   
   180    94   172 1   
   181    95   174 1   
   182   168   170 1   
@<TRIPOS>SUBSTRUCTURE
     1 0O6         1 TEMP              0 ****  ****    0 ROOT
