@<TRIPOS>MOLECULE
0O6
  174   182     1     0     0
SMALL
abcg2


@<TRIPOS>ATOM
      1 C           37.5100   -10.2860     9.1820 c          1 0O6       0.562100
      2 N           39.5980    -9.3690     8.1030 n7         1 0O6      -0.867900
      3 O           37.0780   -10.9500     8.2350 o          1 0O6      -0.627100
      4 CA          38.4670    -9.1010     8.9950 c3         1 0O6       0.117000
      5 CB          37.6900    -7.8510     8.5510 c3         1 0O6      -0.071900
      6 CAA         36.6190    -7.3990     9.5420 c3         1 0O6      -0.094600
      7 CAC         39.3360    -9.5790     6.6760 c3         1 0O6       0.147600
      8 OAH         30.2470   -25.0770    18.3130 o          1 0O6      -0.609600
      9 CAM         33.3250    -6.4000    18.3130 ca         1 0O6      -0.102500
     10 CAN         33.2360   -30.9350    18.0700 ca         1 0O6      -0.102500
     11 CAO         34.1060    -6.7670    17.2200 ca         1 0O6      -0.115500
     12 CAP         32.5760    -7.3670    18.9730 ca         1 0O6      -0.115500
     13 CAQ         34.1510   -30.1640    17.3690 ca         1 0O6      -0.115500
     14 CAR         32.1160   -30.3220    18.6320 ca         1 0O6      -0.115500
     15 CAS         34.1030    -8.0820    16.7710 ca         1 0O6      -0.091500
     16 CAT         32.5440    -8.6750    18.4970 ca         1 0O6      -0.091500
     17 CAU         33.9260   -28.8020    17.1640 ca         1 0O6      -0.091500
     18 CAV         31.9040   -28.9660    18.4430 ca         1 0O6      -0.091500
     19 CAW         31.9170   -18.7000    16.3160 ca         1 0O6      -0.106250
     20 CAX         32.9320   -19.2240    15.5190 ca         1 0O6      -0.106250
     21 CAY         33.5540   -17.8230    17.8200 ca         1 0O6      -0.106250
     22 CAZ         34.5650   -18.3320    17.0180 ca         1 0O6      -0.106250
     23 CBA         32.6220   -12.1730    18.7360 cc         1 0O6      -0.193000
     24 CBB         33.0670   -24.4660    16.4820 cc         1 0O6      -0.193000
     25 CBD         22.4180   -29.0330    19.2270 c3         1 0O6      -0.071900
     26 CBE         31.0840   -15.8510    18.3160 c3         1 0O6      -0.071400
     27 CBF         36.1580   -20.7760    15.7290 c3         1 0O6      -0.071400
     28 CBG         31.7240   -15.2040    19.5520 c3         1 0O6      -0.095400
     29 CBH         35.2980   -21.8450    16.4010 c3         1 0O6      -0.095400
     30 CBI         37.9290   -12.7400    12.4710 c3         1 0O6       0.158600
     31 CBJ         26.7060   -24.6060    20.7300 c3         1 0O6       0.158600
     32 CBK         31.1110   -17.4010    18.3320 c3         1 0O6      -0.031600
     33 CBL         35.3760   -19.6520    15.0180 c3         1 0O6      -0.031600
     34 CBM         36.2160   -14.1720    11.2210 c3         1 0O6      -0.064400
     35 CBN         26.0210   -23.0720    18.7990 c3         1 0O6      -0.064400
     36 CBO         35.0120   -14.1740    12.1540 c3         1 0O6      -0.098900
     37 CBP         27.3110   -22.9890    17.9910 c3         1 0O6      -0.098900
     38 CBQ         32.5920   -13.4520    12.4820 c5         1 0O6      -0.088900
     39 CBR         28.4480   -23.5770    15.7840 c5         1 0O6      -0.088900
     40 CBS         32.0340   -12.0880    12.8870 c5         1 0O6      -0.083400
     41 CBT         28.9790   -24.9120    15.2650 c5         1 0O6      -0.083400
     42 CBU         31.1370   -13.8440    19.9190 c3         1 0O6       0.082600
     43 CBV         34.4490   -22.6450    15.4070 c3         1 0O6       0.082600
     44 NBW         31.1800   -11.6790    17.1360 nd         1 0O6      -0.354500
     45 NBX         34.6560   -25.9980    16.4630 nd         1 0O6      -0.354500
     46 NBY         30.5880   -12.5220    17.9470 nc         1 0O6      -0.211800
     47 NBZ         35.1450   -24.9250    15.8940 nc         1 0O6      -0.211800
     48 NCB         22.4570   -27.6280    21.2960 n7         1 0O6      -0.867900
     49 NCC         33.1600   -10.4930    15.4670 ns         1 0O6      -0.498900
     50 NCD         31.1060   -26.6250    16.8960 ns         1 0O6      -0.498900
     51 NCE         37.1810   -10.5470    10.4600 ns         1 0O6      -0.478900
     52 NCF         25.0510   -26.7450    19.2500 ns         1 0O6      -0.478900
     53 CCH         23.7140   -26.8960    19.2830 c          1 0O6       0.562100
     54 CCI         33.7370   -11.3810    14.6370 c          1 0O6       0.594100
     55 CCJ         30.1300   -25.8130    17.3370 c          1 0O6       0.594100
     56 CCK         35.3600   -11.0750    11.9450 c          1 0O6       0.559500
     57 CCL         27.0180   -26.1380    18.0090 c          1 0O6       0.559500
     58 CCM         32.2060   -17.9950    17.4810 ca         1 0O6      -0.081300
     59 CCN         34.2730   -19.0520    15.8540 ca         1 0O6      -0.081300
     60 CCO         33.3430    -9.0560    17.4210 ca         1 0O6      -0.106800
     61 CCP         32.7860   -28.1910    17.6780 ca         1 0O6      -0.106800
     62 CCQ         32.4300   -11.4220    17.5990 cd         1 0O6       0.187300
     63 CCR         33.3730   -25.7660    16.8420 cd         1 0O6       0.187300
     64 CCS         37.0660   -12.8980    11.2140 c3         1 0O6      -0.081700
     65 CCT         25.7830   -24.3970    19.5280 c3         1 0O6      -0.081700
     66 CCV         23.2150   -28.0820    20.1170 c3         1 0O6       0.117000
     67 CCW         33.9350   -13.1590    11.7890 c5         1 0O6       0.126200
     68 CCX         27.3570   -23.9440    16.8030 c5         1 0O6       0.126200
     69 CCY         33.2870   -11.2470    13.1810 c5         1 0O6       0.030200
     70 CCZ         28.8600   -25.8520    16.4790 c5         1 0O6       0.030200
     71 CDA         33.3880   -10.4930    16.9060 c3         1 0O6       0.151700
     72 CDB         32.4230   -26.7190    17.5310 c3         1 0O6       0.151700
     73 CDC         36.2850   -11.6140    10.8440 c3         1 0O6       0.048700
     74 CDD         25.6940   -25.6270    18.5960 c3         1 0O6       0.048700
     75 NDE         34.2620   -11.7860    12.2450 n          1 0O6      -0.392300
     76 NDF         27.7150   -25.3220    17.2020 n          1 0O6      -0.392300
     77 NDG         31.4520   -12.8170    18.9260 na         1 0O6       0.118800
     78 NDH         34.1760   -23.9990    15.8810 na         1 0O6       0.118800
     79 HN          40.1090   -10.1670     8.4640 hn         1 0O6       0.418000
     80 HA          38.9040    -8.8810     9.9730 h1         1 0O6       0.064200
     81 HB          38.4290    -7.0560     8.4290 hc         1 0O6       0.056200
     82 HBA         37.2320    -8.0380     7.5780 hc         1 0O6       0.056200
     83 HAA         36.0950    -6.5230     9.1560 hc         1 0O6       0.037200
     84 HAAA        35.8710    -8.1750     9.7120 hc         1 0O6       0.037200
     85 HAAB        37.0590    -7.1420    10.5080 hc         1 0O6       0.037200
     86 HAB         22.7120   -30.4030    17.5700 hc         1 0O6       0.037200
     87 HABA        23.7960   -29.0070    17.5360 hc         1 0O6       0.037200
     88 HABB        24.0820   -30.3190    18.6770 hc         1 0O6       0.037200
     89 HAC         40.2890    -9.8050     6.1950 h1         1 0O6       0.037200
     90 HACA        38.6340   -10.3900     6.4660 h1         1 0O6       0.037200
     91 HACB        38.9510    -8.6630     6.2280 h1         1 0O6       0.037200
     92 HAD         20.6690   -26.8970    22.0650 h1         1 0O6       0.037200
     93 HADA        20.9810   -26.3130    20.4230 h1         1 0O6       0.037200
     94 HADB        20.4710   -27.9870    20.7000 h1         1 0O6       0.037200
     95 HOAL        26.5700   -25.3900    22.5200 ho         1 0O6       0.445000
     96 HAM         33.3290    -5.3780    18.6680 ha         1 0O6       0.113000
     97 HAN         33.3900   -32.0010    18.1880 ha         1 0O6       0.113000
     98 HAO         34.7280    -6.0340    16.7230 ha         1 0O6       0.115000
     99 HAP         31.9780    -7.0950    19.8340 ha         1 0O6       0.115000
    100 HAQ         35.0310   -30.6220    16.9320 ha         1 0O6       0.115000
    101 HAR         31.4060   -30.9060    19.2040 ha         1 0O6       0.115000
    102 HAS         34.7160    -8.3540    15.9200 ha         1 0O6       0.127000
    103 HAT         31.9240    -9.4070    18.9960 ha         1 0O6       0.127000
    104 HAU         34.6450   -28.2260    16.6060 ha         1 0O6       0.127000
    105 HAV         31.0280   -28.4960    18.8770 ha         1 0O6       0.127000
    106 HAW         30.8830   -18.8220    16.0150 ha         1 0O6       0.109750
    107 HAX         32.6760   -19.7670    14.6160 ha         1 0O6       0.109750
    108 HAY         33.8130   -17.2920    18.7290 ha         1 0O6       0.109750
    109 HAZ         35.5970   -18.1980    17.3190 ha         1 0O6       0.109750
    110 HBAA        33.4680   -12.2710    19.3950 h4         1 0O6       0.169500
    111 HBB         32.1610   -23.8900    16.5480 h4         1 0O6       0.169500
    112 HBD         21.6330   -28.4740    18.7150 hc         1 0O6       0.056200
    113 HBDA        21.9380   -29.7830    19.8600 hc         1 0O6       0.056200
    114 HBE         31.5900   -15.4980    17.4160 hc         1 0O6       0.053450
    115 HBEA        30.0440   -15.5250    18.2510 hc         1 0O6       0.053450
    116 HBF         36.8150   -21.2530    14.9960 hc         1 0O6       0.053450
    117 HBFA        36.8000   -20.3310    16.4920 hc         1 0O6       0.053450
    118 HBG         31.5790   -15.8460    20.4240 hc         1 0O6       0.057950
    119 HBGA        32.8060   -15.1090    19.4270 hc         1 0O6       0.057950
    120 HBH         35.9530   -22.5450    16.9240 hc         1 0O6       0.057950
    121 HBHA        34.6500   -21.3950    17.1560 hc         1 0O6       0.057950
    122 HBI         38.0860   -13.7210    12.9300 h1         1 0O6       0.034450
    123 HBIA        37.4470   -12.0880    13.2070 h1         1 0O6       0.034450
    124 HBJ         27.0420   -23.6370    21.1120 h1         1 0O6       0.034450
    125 HBJA        27.5990   -25.1760    20.4480 h1         1 0O6       0.034450
    126 HBK         31.2450   -17.7400    19.3640 hc         1 0O6       0.048450
    127 HBKA        30.1520   -17.7860    17.9860 hc         1 0O6       0.048450
    128 HBL         36.0890   -18.8650    14.7580 hc         1 0O6       0.048450
    129 HBLA        34.9480   -20.0300    14.0880 hc         1 0O6       0.048450
    130 HBM         35.8650   -14.3490    10.1990 hc         1 0O6       0.049450
    131 HBMA        36.8730   -15.0080    11.4730 hc         1 0O6       0.049450
    132 HBN         26.0230   -22.2750    19.5460 hc         1 0O6       0.049450
    133 HBNA        25.1760   -22.8890    18.1300 hc         1 0O6       0.049450
    134 HBO         34.5580   -15.1680    12.1300 hc         1 0O6       0.062700
    135 HBOA        35.3070   -13.9970    13.1910 hc         1 0O6       0.062700
    136 HBP         27.4190   -21.9690    17.6130 hc         1 0O6       0.062700
    137 HBPA        28.1870   -23.1800    18.6160 hc         1 0O6       0.062700
    138 HBQ         31.9150   -13.9820    11.8150 hc         1 0O6       0.059450
    139 HBQA        32.7640   -14.0680    13.3650 hc         1 0O6       0.059450
    140 HBR         29.2450   -23.0290    16.2930 hc         1 0O6       0.059450
    141 HBRA        28.0530   -22.9400    14.9950 hc         1 0O6       0.059450
    142 HBS         31.4850   -11.6200    12.0680 hc         1 0O6       0.062700
    143 HBSA        31.3660   -12.1390    13.7450 hc         1 0O6       0.062700
    144 HBT         28.3400   -25.2910    14.4660 hc         1 0O6       0.062700
    145 HBTA        29.9980   -24.8530    14.8870 hc         1 0O6       0.062700
    146 HBU         30.0510   -13.8910    19.9760 h1         1 0O6       0.069700
    147 HBUA        31.5270   -13.4980    20.8760 h1         1 0O6       0.069700
    148 HBV         33.4830   -22.1820    15.2160 h1         1 0O6       0.069700
    149 HBVA        34.9710   -22.7470    14.4540 h1         1 0O6       0.069700
    150 HNCB        22.9800   -26.8870    21.7490 hn         1 0O6       0.418000
    151 HNCC        32.5530    -9.7830    15.0890 hn         1 0O6       0.324500
    152 HNCD        30.9200   -27.2330    16.1120 hn         1 0O6       0.324500
    153 HNCE        37.6170   -10.0180    11.1970 hn         1 0O6       0.337000
    154 HNCF        25.6200   -27.3110    19.8580 hn         1 0O6       0.337000
    155 HCS         37.7810   -13.0230    10.3950 hc         1 0O6       0.080200
    156 HCT         24.7780   -24.3170    19.9550 hc         1 0O6       0.080200
    157 HCV         24.0870   -28.6190    20.5020 h1         1 0O6       0.064200
    158 HCW         33.7970   -13.1390    10.7040 h1         1 0O6       0.055700
    159 HCX         26.3810   -23.9630    16.3090 h1         1 0O6       0.055700
    160 HCY         33.1220   -10.1930    12.9640 h1         1 0O6       0.086700
    161 HCZ         28.6690   -26.8820    16.1830 h1         1 0O6       0.086700
    162 HDA         34.3970   -10.8800    17.0630 h1         1 0O6       0.091200
    163 HDB         32.2710   -26.3310    18.5410 h1         1 0O6       0.091200
    164 HDC         35.6690   -11.8430     9.9720 h1         1 0O6       0.092200
    165 HDD         25.0580   -25.3450    17.7520 h1         1 0O6       0.092200
    166 OAG         34.5080   -12.2560    15.0210 o          1 0O6      -0.609600
    167 OAI         35.6050   -10.0010    12.5020 o          1 0O6      -0.582000
    168 OAK         39.1950   -12.1710    12.0990 oh         1 0O6      -0.679000
    169 OAJ         27.4170   -27.2780    18.2680 o          1 0O6      -0.582000
    170 HOAK        39.6640   -11.9380    12.9100 ho         1 0O6       0.445000
    171 CAB         23.3020   -29.7280    18.1910 c3         1 0O6      -0.094600
    172 CAD         21.0820   -27.1750    21.0930 c3         1 0O6       0.147600
    173 OAF         22.9420   -26.1510    18.6720 o          1 0O6      -0.627100
    174 OAL         25.9920   -25.3180    21.7500 oh         1 0O6      -0.679000
@<TRIPOS>BOND
     1     1     3 2   
     2     1     4 1   
     3     1    51 1   
     4     2     4 1   
     5     2     7 1   
     6     2    79 1   
     7     4     5 1   
     8     4    80 1   
     9     5     6 1   
    10     5    81 1   
    11     5    82 1   
    12     6    83 1   
    13     6    84 1   
    14     6    85 1   
    15     7    89 1   
    16     7    90 1   
    17     7    91 1   
    18     8    55 2   
    19     9    11 ar  
    20     9    12 ar  
    21     9    96 1   
    22    10    13 ar  
    23    10    14 ar  
    24    10    97 1   
    25    11    15 ar  
    26    11    98 1   
    27    12    16 ar  
    28    12    99 1   
    29    13    17 ar  
    30    13   100 1   
    31    14    18 ar  
    32    14   101 1   
    33    15    60 ar  
    34    15   102 1   
    35    16    60 ar  
    36    16   103 1   
    37    17    61 ar  
    38    17   104 1   
    39    18    61 ar  
    40    18   105 1   
    41    19    20 ar  
    42    19    58 ar  
    43    19   106 1   
    44    20    59 ar  
    45    20   107 1   
    46    21    22 ar  
    47    21    58 ar  
    48    21   108 1   
    49    22    59 ar  
    50    22   109 1   
    51    23    62 2   
    52    23    77 1   
    53    23   110 1   
    54    24    63 2   
    55    24    78 1   
    56    24   111 1   
    57    25    66 1   
    58    25   112 1   
    59    25   113 1   
    60    25   171 1   
    61    26    28 1   
    62    26    32 1   
    63    26   114 1   
    64    26   115 1   
    65    27    29 1   
    66    27    33 1   
    67    27   116 1   
    68    27   117 1   
    69    28    42 1   
    70    28   118 1   
    71    28   119 1   
    72    29    43 1   
    73    29   120 1   
    74    29   121 1   
    75    30    64 1   
    76    30   122 1   
    77    30   123 1   
    78    30   168 1   
    79    31    65 1   
    80    31   124 1   
    81    31   125 1   
    82    31   174 1   
    83    32    58 1   
    84    32   126 1   
    85    32   127 1   
    86    33    59 1   
    87    33   128 1   
    88    33   129 1   
    89    34    36 1   
    90    34    64 1   
    91    34   130 1   
    92    34   131 1   
    93    35    37 1   
    94    35    65 1   
    95    35   132 1   
    96    35   133 1   
    97    36    67 1   
    98    36   134 1   
    99    36   135 1   
   100    37    68 1   
   101    37   136 1   
   102    37   137 1   
   103    38    40 1   
   104    38    67 1   
   105    38   138 1   
   106    38   139 1   
   107    39    41 1   
   108    39    68 1   
   109    39   140 1   
   110    39   141 1   
   111    40    69 1   
   112    40   142 1   
   113    40   143 1   
   114    41    70 1   
   115    41   144 1   
   116    41   145 1   
   117    42    77 1   
   118    42   146 1   
   119    42   147 1   
   120    43    78 1   
   121    43   148 1   
   122    43   149 1   
   123    44    46 2   
   124    44    62 1   
   125    45    47 2   
   126    45    63 1   
   127    46    77 1   
   128    47    78 1   
   129    48    66 1   
   130    48   150 1   
   131    48   172 1   
   132    49    54 1   
   133    49    71 1   
   134    49   151 1   
   135    50    55 1   
   136    50    72 1   
   137    50   152 1   
   138    51    73 1   
   139    51   153 1   
   140    52    53 1   
   141    52    74 1   
   142    52   154 1   
   143    53    66 1   
   144    53   173 2   
   145    54    69 1   
   146    54   166 2   
   147    55    70 1   
   148    56    73 1   
   149    56    75 1   
   150    56   167 2   
   151    57    74 1   
   152    57    76 1   
   153    57   169 2   
   154    60    71 1   
   155    61    72 1   
   156    62    71 1   
   157    63    72 1   
   158    64    73 1   
   159    64   155 1   
   160    65    74 1   
   161    65   156 1   
   162    66   157 1   
   163    67    75 1   
   164    67   158 1   
   165    68    76 1   
   166    68   159 1   
   167    69    75 1   
   168    69   160 1   
   169    70    76 1   
   170    70   161 1   
   171    71   162 1   
   172    72   163 1   
   173    73   164 1   
   174    74   165 1   
   175    86   171 1   
   176    87   171 1   
   177    88   171 1   
   178    92   172 1   
   179    93   172 1   
   180    94   172 1   
   181    95   174 1   
   182   168   170 1   
@<TRIPOS>SUBSTRUCTURE
     1 0O6         1 TEMP              0 ****  ****    0 ROOT
