@<TRIPOS>MOLECULE
0O7
   41    44     1     0     0
SMALL
abcg2


@<TRIPOS>ATOM
      1 C1           7.6470     0.1900     1.2470 c3         1 0O7      -0.087100
      2 C2           7.0350     0.6440    -0.0770 c3         1 0O7      -0.032100
      3 C3           5.5590     0.3630    -0.1350 ca         1 0O7      -0.072300
      4 C4           5.0660    -0.8000    -0.7200 ca         1 0O7      -0.108500
      5 C5           3.7080    -1.0800    -0.7280 ca         1 0O7      -0.098000
      6 C6           2.7920    -0.2040    -0.1460 cp         1 0O7      -0.035000
      7 C7           3.2840     0.9640     0.4370 ca         1 0O7      -0.098000
      8 C8           4.6420     1.2400     0.4410 ca         1 0O7      -0.108500
      9 C9           1.3470    -0.5050    -0.1470 cp         1 0O7      -0.056000
     10 C10          0.8830    -1.8140    -0.0080 ca         1 0O7      -0.060000
     11 C11         -0.4690    -2.1060     0.0000 ca         1 0O7      -0.148000
     12 C12         -1.4140    -1.0930    -0.1390 ca         1 0O7       0.321000
     13 N13         -2.7880    -1.3930    -0.2200 nh         1 0O7      -0.757300
     14 C14         -3.2120    -2.7740    -0.4220 c3         1 0O7       0.192100
     15 S15         -3.8690    -0.3800     0.5620 sy         1 0O7       1.235600
     16 O16         -5.2060    -0.7070     0.1050 o          1 0O7      -0.540000
     17 O17         -3.6180    -0.3770     1.9930 o          1 0O7      -0.540000
     18 C18         -3.3120     1.0980    -0.1230 cc         1 0O7      -0.427500
     19 C19         -3.9250     2.3000    -0.3910 cd         1 0O7      -0.028000
     20 N20         -2.9380     3.0920    -0.8170 na         1 0O7       0.019800
     21 N22         -1.7430     2.5120    -0.8500 nd         1 0O7      -0.506800
     22 C23         -1.9520     1.2820    -0.4210 cc         1 0O7       0.398500
     23 C24         -0.9620     0.2330    -0.2760 ca         1 0O7      -0.174500
     24 C25          0.4010     0.5050    -0.2750 ca         1 0O7      -0.035000
     25 H1           7.1840     0.7030     2.0910 hc         1 0O7       0.035367
     26 H2           7.5110    -0.8820     1.3930 hc         1 0O7       0.035367
     27 H3           8.7170     0.3990     1.2750 hc         1 0O7       0.035367
     28 H4           7.2110     1.7140    -0.2110 hc         1 0O7       0.046200
     29 H5           7.5390     0.1380    -0.9030 hc         1 0O7       0.046200
     30 H6           5.7520    -1.4960    -1.1890 ha         1 0O7       0.112000
     31 H7           3.3620    -1.9840    -1.2140 ha         1 0O7       0.114000
     32 H8           2.6040     1.6610     0.9120 ha         1 0O7       0.114000
     33 H9           4.9940     2.1540     0.9050 ha         1 0O7       0.112000
     34 H10          1.5860    -2.6260     0.1270 ha         1 0O7       0.119000
     35 H11         -0.7770    -3.1340     0.1300 ha         1 0O7       0.122000
     36 H12         -3.0740    -3.3980     0.4620 h1         1 0O7       0.056033
     37 H13         -4.2590    -2.7950    -0.7100 h1         1 0O7       0.056033
     38 H14         -2.6350    -3.1900    -1.2450 h1         1 0O7       0.056033
     39 H15         -4.9470     2.6280    -0.3100 h4         1 0O7       0.174000
     40 H16         -3.0330     4.0510    -1.1200 hn         1 0O7       0.377000
     41 H17          0.7190     1.5330    -0.3950 ha         1 0O7       0.133000
@<TRIPOS>BOND
     1     1     2 1   
     2     1    25 1   
     3     1    26 1   
     4     1    27 1   
     5     2     3 1   
     6     2    28 1   
     7     2    29 1   
     8     3     4 ar  
     9     3     8 ar  
    10     4     5 ar  
    11     4    30 1   
    12     5     6 ar  
    13     5    31 1   
    14     6     7 ar  
    15     6     9 1   
    16     7     8 ar  
    17     7    32 1   
    18     8    33 1   
    19     9    10 ar  
    20     9    24 ar  
    21    10    11 ar  
    22    10    34 1   
    23    11    12 ar  
    24    11    35 1   
    25    12    13 1   
    26    12    23 ar  
    27    13    14 1   
    28    13    15 1   
    29    14    36 1   
    30    14    37 1   
    31    14    38 1   
    32    15    16 2   
    33    15    17 2   
    34    15    18 1   
    35    18    19 2   
    36    18    22 1   
    37    19    20 1   
    38    19    39 1   
    39    20    21 1   
    40    20    40 1   
    41    21    22 2   
    42    22    23 1   
    43    23    24 ar  
    44    24    41 1   
@<TRIPOS>SUBSTRUCTURE
     1 0O7         1 TEMP              0 ****  ****    0 ROOT
