@<TRIPOS>MOLECULE
0O7
   41    44     1     0     0
SMALL
No Charge or Current Charge


@<TRIPOS>ATOM
      1 C1           7.8000     0.1720     1.1270 c3         1 0O7      -0.087100
      2 C2           7.0830     0.7040    -0.1280 c3         1 0O7      -0.032100
      3 C3           5.5930     0.3890    -0.1140 ca         1 0O7      -0.072300
      4 C4           5.1150    -0.8100    -0.6720 ca         1 0O7      -0.108500
      5 C5           3.7400    -1.1020    -0.6550 ca         1 0O7      -0.098000
      6 C6           2.8060    -0.2050    -0.0800 cp         1 0O7      -0.035000
      7 C7           3.3070     0.9980     0.4790 ca         1 0O7      -0.098000
      8 C8           4.6810     1.2900     0.4640 ca         1 0O7      -0.108500
      9 C9           1.3410    -0.5170    -0.0630 cp         1 0O7      -0.056000
     10 C10          0.8780    -1.8400     0.1080 ca         1 0O7      -0.060000
     11 C11         -0.4940    -2.1310     0.1110 ca         1 0O7      -0.148000
     12 C12         -1.4640    -1.1170    -0.0430 ca         1 0O7       0.321000
     13 N13         -2.8370    -1.4800    -0.1130 nh         1 0O7      -0.757300
     14 C14         -3.2930    -2.8410    -0.4690 c3         1 0O7       0.192100
     15 S15         -4.0100    -0.3790     0.4290 sy         1 0O7       1.235600
     16 O16         -5.2670    -0.6100    -0.2920 o          1 0O7      -0.540000
     17 O17         -3.9540    -0.3710     1.8940 o          1 0O7      -0.540000
     18 C18         -3.3240     1.1210    -0.1400 cc         1 0O7      -0.427500
     19 C19         -3.9540     2.2980    -0.4190 cd         1 0O7      -0.028000
     20 N20         -2.9140     3.1580    -0.7830 na         1 0O7       0.019800
     21 N22         -1.6680     2.5300    -0.7350 nd         1 0O7      -0.506800
     22 C23         -1.9750     1.3060    -0.3450 cc         1 0O7       0.398500
     23 C24         -1.0150     0.2220    -0.1830 ca         1 0O7      -0.174500
     24 C25          0.3710     0.5010    -0.2130 ca         1 0O7      -0.035000
     25 H1           7.3780     0.6220     2.0330 hc         1 0O7       0.035367
     26 H2           7.6950    -0.9170     1.2000 hc         1 0O7       0.035367
     27 H3           8.8690     0.4130     1.0890 hc         1 0O7       0.035367
     28 H4           7.2420     1.7870    -0.1960 hc         1 0O7       0.046200
     29 H5           7.5550     0.2700    -1.0180 hc         1 0O7       0.046200
     30 H6           5.8080    -1.5170    -1.1220 ha         1 0O7       0.112000
     31 H7           3.3960    -2.0300    -1.1060 ha         1 0O7       0.114000
     32 H8           2.6260     1.7060     0.9450 ha         1 0O7       0.114000
     33 H9           5.0380     2.2180     0.9060 ha         1 0O7       0.112000
     34 H10          1.5890    -2.6510     0.2450 ha         1 0O7       0.119000
     35 H11         -0.7950    -3.1650     0.2430 ha         1 0O7       0.122000
     36 H12         -3.3160    -3.4840     0.4210 h1         1 0O7       0.056033
     37 H13         -4.2960    -2.8310    -0.9150 h1         1 0O7       0.056033
     38 H14         -2.6210    -3.2910    -1.2110 h1         1 0O7       0.056033
     39 H15         -4.9990     2.5920    -0.3810 h4         1 0O7       0.174000
     40 H16         -3.0120     4.1350    -1.0560 hn         1 0O7       0.377000
     41 H17          0.7080     1.5250    -0.3550 ha         1 0O7       0.133000
@<TRIPOS>BOND
     1     1     2 1   
     2     1    25 1   
     3     1    26 1   
     4     1    27 1   
     5     2     3 1   
     6     2    28 1   
     7     2    29 1   
     8     3     4 ar  
     9     3     8 ar  
    10     4     5 ar  
    11     4    30 1   
    12     5     6 ar  
    13     5    31 1   
    14     6     7 ar  
    15     6     9 1   
    16     7     8 ar  
    17     7    32 1   
    18     8    33 1   
    19     9    10 ar  
    20     9    24 ar  
    21    10    11 ar  
    22    10    34 1   
    23    11    12 ar  
    24    11    35 1   
    25    12    13 1   
    26    12    23 ar  
    27    13    14 1   
    28    13    15 1   
    29    14    36 1   
    30    14    37 1   
    31    14    38 1   
    32    15    16 2   
    33    15    17 2   
    34    15    18 1   
    35    18    19 2   
    36    18    22 1   
    37    19    20 1   
    38    19    39 1   
    39    20    21 1   
    40    20    40 1   
    41    21    22 2   
    42    22    23 1   
    43    23    24 ar  
    44    24    41 1   
@<TRIPOS>SUBSTRUCTURE
     1 0O7         1 TEMP              0 ****  ****    0 ROOT
