@<TRIPOS>MOLECULE
0OB
   23    24     1     0     0
SMALL
abcg2


@<TRIPOS>ATOM
      1 CAU          4.1320     0.0190    -0.2330 c          1 0OB       0.719000
      2 OAC          4.5410    -0.0540     0.9420 o          1 0OB      -0.737000
      3 CAM          2.6100     0.0190    -0.4640 c3         1 0OB      -0.207400
      4 CAN          1.7670    -0.2020     0.7890 c3         1 0OB      -0.012200
      5 CAW          0.3010    -0.1990     0.5110 cc         1 0OB       0.025400
      6 CAK         -0.5860    -1.2100     0.6620 cd         1 0OB      -0.231200
      7 SAS         -0.4620     1.2430    -0.1120 ss         1 0OB       0.035400
      8 CAX         -1.9250    -0.8620     0.2810 ca         1 0OB      -0.052800
      9 CAY         -2.0120     0.4670    -0.1690 ca         1 0OB      -0.175000
     10 CAJ         -3.2160     1.0220    -0.5930 ca         1 0OB      -0.077000
     11 CAH         -4.3490     0.2290    -0.5610 ca         1 0OB      -0.127000
     12 CAG         -4.2830    -1.0960    -0.1150 ca         1 0OB      -0.125000
     13 CAI         -3.0860    -1.6430     0.3030 ca         1 0OB      -0.085000
     14 H2           2.3420     0.9740    -0.9300 hc         1 0OB       0.024700
     15 H3           2.3650    -0.7430    -1.2100 hc         1 0OB       0.024700
     16 H4           2.0200    -1.1600     1.2460 hc         1 0OB       0.061700
     17 H5           2.0020     0.5660     1.5310 hc         1 0OB       0.061700
     18 H6          -0.3030    -2.1860     1.0340 ha         1 0OB       0.201000
     19 H7          -3.2670     2.0470    -0.9380 ha         1 0OB       0.111000
     20 H8          -5.2960     0.6410    -0.8840 ha         1 0OB       0.098000
     21 H9          -5.1830    -1.6970    -0.0960 ha         1 0OB       0.098000
     22 H10         -3.0420    -2.6690     0.6490 ha         1 0OB       0.107000
     23 O1           4.8350     0.1050    -1.2610 o          1 0OB      -0.737000
@<TRIPOS>BOND
     1     1     2 1   
     2     1     3 1   
     3     1    23 1   
     4     3     4 1   
     5     3    14 1   
     6     3    15 1   
     7     4     5 1   
     8     4    16 1   
     9     4    17 1   
    10     5     6 2   
    11     5     7 1   
    12     6     8 1   
    13     6    18 1   
    14     7     9 1   
    15     8     9 ar  
    16     8    13 ar  
    17     9    10 ar  
    18    10    11 ar  
    19    10    19 1   
    20    11    12 ar  
    21    11    20 1   
    22    12    13 ar  
    23    12    21 1   
    24    13    22 1   
@<TRIPOS>SUBSTRUCTURE
     1 0OB         1 TEMP              0 ****  ****    0 ROOT
