@<TRIPOS>MOLECULE
0OB
   23    24     1     0     0
SMALL
No Charge or Current Charge


@<TRIPOS>ATOM
      1 CAU          4.1420    -0.0630    -0.1710 c          1 0OB       0.719000
      2 OAC          4.7040     0.9850     0.1080 o          1 0OB      -0.737000
      3 CAM          2.6490    -0.0110    -0.5270 c3         1 0OB      -0.207400
      4 CAN          1.7980    -0.1470     0.7570 c3         1 0OB      -0.012200
      5 CAW          0.3170    -0.1140     0.4850 cc         1 0OB       0.025400
      6 CAK         -0.5510    -1.1840     0.4100 cd         1 0OB      -0.231200
      7 SAS         -0.5430     1.4320     0.2240 ss         1 0OB       0.035400
      8 CAX         -1.9240    -0.8380     0.1400 ca         1 0OB      -0.052800
      9 CAY         -2.0700     0.5270     0.0160 ca         1 0OB      -0.175000
     10 CAJ         -3.3260     1.0950    -0.2480 ca         1 0OB      -0.077000
     11 CAH         -4.4400     0.2410    -0.3850 ca         1 0OB      -0.127000
     12 CAG         -4.2860    -1.1570    -0.2570 ca         1 0OB      -0.125000
     13 CAI         -3.0160    -1.7080     0.0090 ca         1 0OB      -0.085000
     14 H2           2.3900     0.9630    -0.9600 hc         1 0OB       0.024700
     15 H3           2.3740    -0.8640    -1.1610 hc         1 0OB       0.024700
     16 H4           2.0560    -1.0840     1.2650 hc         1 0OB       0.061700
     17 H5           2.0570     0.6620     1.4510 hc         1 0OB       0.061700
     18 H6          -0.2180    -2.2100     0.5420 ha         1 0OB       0.201000
     19 H7          -3.4390     2.1730    -0.3450 ha         1 0OB       0.111000
     20 H8          -5.4220     0.6620    -0.5890 ha         1 0OB       0.098000
     21 H9          -5.1490    -1.8110    -0.3630 ha         1 0OB       0.098000
     22 H10         -2.8860    -2.7830     0.1090 ha         1 0OB       0.107000
     23 O1           4.6870    -1.1550    -0.1280 o          1 0OB      -0.737000
@<TRIPOS>BOND
     1     1     2 1   
     2     1     3 1   
     3     1    23 1   
     4     3     4 1   
     5     3    14 1   
     6     3    15 1   
     7     4     5 1   
     8     4    16 1   
     9     4    17 1   
    10     5     6 2   
    11     5     7 1   
    12     6     8 1   
    13     6    18 1   
    14     7     9 1   
    15     8     9 ar  
    16     8    13 ar  
    17     9    10 ar  
    18    10    11 ar  
    19    10    19 1   
    20    11    12 ar  
    21    11    20 1   
    22    12    13 ar  
    23    12    21 1   
    24    13    22 1   
@<TRIPOS>SUBSTRUCTURE
     1 0OB         1 TEMP              0 ****  ****    0 ROOT
