@<TRIPOS>MOLECULE
0OC
   20    20     1     0     0
SMALL
abcg2


@<TRIPOS>ATOM
      1 CAA         -2.2420     0.9400     1.4130 c3         1 0OC       0.167100
      2 NAJ         -2.1620    -0.1670     0.4650 n3         1 0OC      -0.698500
      3 CAB         -2.0740    -1.4720     1.1100 c3         1 0OC       0.167100
      4 SAK         -1.1650     0.0630    -0.8350 sy         1 0OC       1.172600
      5 OAC         -1.2730    -1.1230    -1.6670 o          1 0OC      -0.534500
      6 OAD         -1.4800     1.3670    -1.3930 o          1 0OC      -0.534500
      7 CAI          0.4720     0.1380    -0.2030 cc         1 0OC      -0.339500
      8 CAF          1.0680     1.3300     0.2960 cc         1 0OC      -0.053000
      9 CAE          2.3170     1.0960     0.7750 cd         1 0OC      -0.259000
     10 SAH          2.7610    -0.5530     0.6220 ss         1 0OC       0.255000
     11 CAG          1.2700    -0.9620    -0.0920 cd         1 0OC      -0.139000
     12 H1          -2.3530     1.8890     0.8970 h1         1 0OC       0.053033
     13 H2          -3.1270     0.7870     2.0280 h1         1 0OC       0.053033
     14 H3          -1.3710     0.9860     2.0740 h1         1 0OC       0.053033
     15 H4          -2.9240    -1.5660     1.7830 h1         1 0OC       0.053033
     16 H5          -2.1350    -2.2740     0.3810 h1         1 0OC       0.053033
     17 H6          -1.1580    -1.5870     1.7000 h1         1 0OC       0.053033
     18 H7           0.6010     2.3040     0.2850 ha         1 0OC       0.153000
     19 H8           3.0050     1.8090     1.2040 h4         1 0OC       0.156000
     20 H9           1.0620    -1.9760    -0.3970 h4         1 0OC       0.170000
@<TRIPOS>BOND
     1     1     2 1   
     2     1    12 1   
     3     1    13 1   
     4     1    14 1   
     5     2     3 1   
     6     2     4 1   
     7     3    15 1   
     8     3    16 1   
     9     3    17 1   
    10     4     5 2   
    11     4     6 2   
    12     4     7 1   
    13     7     8 1   
    14     7    11 2   
    15     8     9 2   
    16     8    18 1   
    17     9    10 1   
    18     9    19 1   
    19    10    11 1   
    20    11    20 1   
@<TRIPOS>SUBSTRUCTURE
     1 0OC         1 TEMP              0 ****  ****    0 ROOT
