@<TRIPOS>MOLECULE
0OC
   20    20     1     0     0
SMALL
No Charge or Current Charge


@<TRIPOS>ATOM
      1 CAA         -2.2870     0.9190     1.4220 c3         1 0OC       0.167100
      2 NAJ         -2.2850    -0.1720     0.4240 n3         1 0OC      -0.698500
      3 CAB         -2.1530    -1.4970     1.0660 c3         1 0OC       0.167100
      4 SAK         -1.1790     0.0830    -0.8510 sy         1 0OC       1.172600
      5 OAC         -1.2650    -1.1130    -1.6990 o          1 0OC      -0.534500
      6 OAD         -1.5070     1.4020    -1.4050 o          1 0OC      -0.534500
      7 CAI          0.4860     0.1600    -0.1660 cc         1 0OC      -0.339500
      8 CAF          1.1470     1.3410     0.2730 cc         1 0OC      -0.053000
      9 CAE          2.4110     1.1420     0.7630 cd         1 0OC      -0.259000
     10 SAH          2.8610    -0.5660     0.7040 ss         1 0OC       0.255000
     11 CAG          1.2820    -0.9560     0.0000 cd         1 0OC      -0.139000
     12 H1          -2.5010     1.8890     0.9520 h1         1 0OC       0.053033
     13 H2          -3.0590     0.7470     2.1830 h1         1 0OC       0.053033
     14 H3          -1.3170     0.9920     1.9340 h1         1 0OC       0.053033
     15 H4          -2.9190    -1.6310     1.8410 h1         1 0OC       0.053033
     16 H5          -2.2820    -2.3090     0.3370 h1         1 0OC       0.053033
     17 H6          -1.1690    -1.6130     1.5400 h1         1 0OC       0.053033
     18 H7           0.6740     2.3200     0.2190 ha         1 0OC       0.153000
     19 H8           3.1040     1.8770     1.1530 h4         1 0OC       0.156000
     20 H9           1.0500    -1.9860    -0.2440 h4         1 0OC       0.170000
@<TRIPOS>BOND
     1     1     2 1   
     2     1    12 1   
     3     1    13 1   
     4     1    14 1   
     5     2     3 1   
     6     2     4 1   
     7     3    15 1   
     8     3    16 1   
     9     3    17 1   
    10     4     5 2   
    11     4     6 2   
    12     4     7 1   
    13     7     8 1   
    14     7    11 2   
    15     8     9 2   
    16     8    18 1   
    17     9    10 1   
    18     9    19 1   
    19    10    11 1   
    20    11    20 1   
@<TRIPOS>SUBSTRUCTURE
     1 0OC         1 TEMP              0 ****  ****    0 ROOT
