@<TRIPOS>MOLECULE
0OE
   60    65     1     0     0
SMALL
No Charge or Current Charge


@<TRIPOS>ATOM
      1 N1           4.6340     2.2020    -0.4330 na         1 0OE       0.000800
      2 N2           5.2260     0.9670    -0.6540 nc         1 0OE      -0.521800
      3 C3           4.1940     0.1400    -0.6710 cd         1 0OE       0.254900
      4 C4           2.9530     0.7950    -0.4760 cd         1 0OE      -0.219900
      5 C5           3.2560     2.1240    -0.2850 cc         1 0OE      -0.051000
      6 C6           2.3350     3.2340    -0.0570 ca         1 0OE      -0.019000
      7 C7           2.1310     4.1970    -1.0630 ca         1 0OE      -0.096000
      8 C8           1.2650     5.2800    -0.8390 ca         1 0OE       0.118000
      9 C9           0.6050     5.4150     0.3940 ca         1 0OE      -0.090000
     10 C10          0.8160     4.4640     1.4080 ca         1 0OE      -0.096000
     11 C11          1.6830     3.3790     1.1840 ca         1 0OE      -0.064000
     12 C12          1.6210     0.2060    -0.4680 cd         1 0OE       0.482400
     13 N13          1.3450    -1.1670    -0.7150 na         1 0OE      -0.182600
     14 C14         -0.0150    -1.2570    -0.5640 ca         1 0OE      -0.093200
     15 C15         -0.4990    -0.0150    -0.2800 ca         1 0OE       0.067400
     16 N16          0.5080     0.9260    -0.2210 nc         1 0OE      -0.553100
     17 C17         -0.8520    -2.3790    -0.6580 ca         1 0OE      -0.133000
     18 C18         -2.2350    -2.1910    -0.4590 ca         1 0OE      -0.080000
     19 C19         -2.7730    -0.9030    -0.1690 cp         1 0OE      -0.011000
     20 C20         -1.8710     0.1940    -0.0790 ca         1 0OE      -0.054000
     21 C21         -4.2450    -0.7100     0.0410 cp         1 0OE      -0.089000
     22 C22         -5.1960    -1.4760    -0.6760 ca         1 0OE      -0.125000
     23 C23         -6.5760    -1.2960    -0.4810 ca         1 0OE      -0.092500
     24 C24         -7.0590    -0.3410     0.4420 ca         1 0OE      -0.117600
     25 C25         -6.1160     0.4270     1.1630 ca         1 0OE      -0.092500
     26 C26         -4.7360     0.2450     0.9640 ca         1 0OE      -0.125000
     27 C27         -8.5530    -0.1450     0.6550 c          1 0OE       0.710600
     28 O28         -8.9250     0.6950     1.4630 o          1 0OE      -0.718000
     29 O29         -9.3320    -0.8340     0.0110 o          1 0OE      -0.718000
     30 Cl           1.0080     6.4730    -2.1060 cl         1 0OE      -0.206000
     31 C31          2.1640    -2.2470    -1.2940 c3         1 0OE       0.087600
     32 C32          2.8010    -3.1530    -0.2200 c3         1 0OE      -0.125400
     33 C33          3.7000    -4.2500    -0.8220 c3         1 0OE       0.073600
     34 N34          4.3040    -5.1130     0.2030 na         1 0OE      -0.168500
     35 C35          5.5690    -4.9820     0.7370 cc         1 0OE       0.385400
     36 N36          5.7970    -5.9240     1.6420 nd         1 0OE      -0.675000
     37 C37          4.6450    -6.6820     1.6910 cd         1 0OE       0.227900
     38 C38          3.7110    -6.1980     0.8120 cc         1 0OE      -0.228000
     39 H1           5.1900     3.0530    -0.3730 hn         1 0OE       0.374000
     40 H2           4.4020    -0.9080    -0.8240 h4         1 0OE       0.041100
     41 H3           2.6390     4.1020    -2.0190 ha         1 0OE       0.126000
     42 H4          -0.0640     6.2540     0.5640 ha         1 0OE       0.131000
     43 H5           0.3100     4.5670     2.3660 ha         1 0OE       0.127000
     44 H6           1.8460     2.6460     1.9700 ha         1 0OE       0.128000
     45 H7          -0.4560    -3.3690    -0.8710 ha         1 0OE       0.104000
     46 H8          -2.8940    -3.0530    -0.5170 ha         1 0OE       0.120000
     47 H9          -2.2330     1.1950     0.1330 ha         1 0OE       0.137000
     48 H10         -4.8630    -2.2110    -1.4050 ha         1 0OE       0.087500
     49 H11         -7.2720    -1.9040    -1.0560 ha         1 0OE       0.128500
     50 H12         -6.4500     1.1700     1.8840 ha         1 0OE       0.128500
     51 H13         -4.0420     0.8450     1.5470 ha         1 0OE       0.087500
     52 H15          1.5250    -2.8630    -1.9400 h1         1 0OE       0.058200
     53 H16          2.9280    -1.8170    -1.9510 h1         1 0OE       0.058200
     54 H17          3.3900    -2.5440     0.4770 hc         1 0OE       0.069200
     55 H18          2.0040    -3.6230     0.3690 hc         1 0OE       0.069200
     56 H19          3.1080    -4.8770    -1.5020 h1         1 0OE       0.058200
     57 H20          4.5030    -3.7850    -1.4090 h1         1 0OE       0.058200
     58 H21          6.2540    -4.1990     0.4320 h5         1 0OE       0.050100
     59 H22          4.5500    -7.5320     2.3560 h4         1 0OE       0.037100
     60 H23          2.7070    -6.5360     0.5870 h4         1 0OE       0.158000
@<TRIPOS>BOND
     1     1     2 1   
     2     1     5 1   
     3     1    39 1   
     4     2     3 2   
     5     3     4 1   
     6     3    40 1   
     7     4     5 2   
     8     4    12 1   
     9     5     6 1   
    10     6     7 ar  
    11     6    11 ar  
    12     7     8 ar  
    13     7    41 1   
    14     8     9 ar  
    15     8    30 1   
    16     9    10 ar  
    17     9    42 1   
    18    10    11 ar  
    19    10    43 1   
    20    11    44 1   
    21    12    13 1   
    22    12    16 2   
    23    13    14 1   
    24    13    31 1   
    25    14    15 ar  
    26    14    17 ar  
    27    15    16 1   
    28    15    20 ar  
    29    17    18 ar  
    30    17    45 1   
    31    18    19 ar  
    32    18    46 1   
    33    19    20 ar  
    34    19    21 1   
    35    20    47 1   
    36    21    22 ar  
    37    21    26 ar  
    38    22    23 ar  
    39    22    48 1   
    40    23    24 ar  
    41    23    49 1   
    42    24    25 ar  
    43    24    27 1   
    44    25    26 ar  
    45    25    50 1   
    46    26    51 1   
    47    27    28 1   
    48    27    29 1   
    49    31    32 1   
    50    31    52 1   
    51    31    53 1   
    52    32    33 1   
    53    32    54 1   
    54    32    55 1   
    55    33    34 1   
    56    33    56 1   
    57    33    57 1   
    58    34    35 1   
    59    34    38 1   
    60    35    36 2   
    61    35    58 1   
    62    36    37 1   
    63    37    38 2   
    64    37    59 1   
    65    38    60 1   
@<TRIPOS>SUBSTRUCTURE
     1 0OE         1 TEMP              0 ****  ****    0 ROOT
