@<TRIPOS>MOLECULE
0OE
   60    65     1     0     0
SMALL
bcc


@<TRIPOS>ATOM
      1 N1           4.2670     2.0600    -2.0900 na         1 0OE       0.000400
      2 N2           4.3980     1.2850    -3.1590 nc         1 0OE      -0.521800
      3 C3           3.3480     0.4930    -3.1370 cd         1 0OE       0.320200
      4 C4           2.5250     0.7610    -2.0250 cd         1 0OE      -0.285200
      5 C5           3.1670     1.7970    -1.3640 cc         1 0OE      -0.000300
      6 C6           2.8340     2.5240    -0.1400 ca         1 0OE      -0.019000
      7 C7           3.0320     3.9020    -0.0700 ca         1 0OE      -0.114000
      8 C8           2.7200     4.5740     1.1010 ca         1 0OE       0.026400
      9 C9           2.2100     3.9090     2.2040 ca         1 0OE      -0.108000
     10 C10          2.0150     2.5370     2.1250 ca         1 0OE      -0.114000
     11 C11          2.3250     1.8460     0.9660 ca         1 0OE      -0.082000
     12 C12          1.2380     0.1760    -1.6860 cd         1 0OE       0.482400
     13 N13          1.0470    -1.1750    -1.5710 na         1 0OE      -0.153300
     14 C14         -0.2690    -1.3520    -1.2300 ca         1 0OE      -0.093200
     15 C15         -0.8130    -0.0620    -1.1660 ca         1 0OE       0.067400
     16 N16          0.1520     0.8670    -1.4630 nc         1 0OE      -0.553100
     17 C17         -1.0310    -2.4860    -0.9760 ca         1 0OE      -0.151000
     18 C18         -2.3610    -2.2880    -0.6600 ca         1 0OE      -0.098000
     19 C19         -2.9400    -1.0020    -0.5940 cp         1 0OE      -0.011000
     20 C20         -2.1570     0.1180    -0.8510 ca         1 0OE      -0.072000
     21 C21         -4.3700    -0.8520    -0.2550 cp         1 0OE      -0.089000
     22 C22         -5.3170    -1.7840    -0.6850 ca         1 0OE      -0.143000
     23 C23         -6.6590    -1.6340    -0.3720 ca         1 0OE      -0.110500
     24 C24         -7.1070    -0.5510     0.3790 ca         1 0OE      -0.117600
     25 C25         -6.1640     0.3780     0.8100 ca         1 0OE      -0.110500
     26 C26         -4.8210     0.2320     0.5020 ca         1 0OE      -0.143000
     27 C27         -8.5820    -0.3850     0.7190 c          1 0OE       0.921200
     28 O28         -8.8890     0.6180     1.3920 o          1 0OE      -0.823300
     29 O29         -9.3560    -1.2640     0.2940 o          1 0OE      -0.823300
     30 CL           2.9660     6.2870     1.1780 cl         1 0OE      -0.114400
     31 C31          2.0520    -2.2180    -1.5710 c3         1 0OE       0.058300
     32 C32          2.4990    -2.5730    -0.1590 c3         1 0OE      -0.125400
     33 C33          3.5690    -3.6550    -0.1840 c3         1 0OE       0.044300
     34 N34          4.0070    -4.0160     1.1470 na         1 0OE      -0.189900
     35 C35          5.1020    -3.5490     1.7840 cc         1 0OE       0.385400
     36 N36          5.1960    -4.0130     3.0030 nd         1 0OE      -0.675000
     37 C37          4.1020    -4.8150     3.1680 cd         1 0OE       0.293200
     38 C38          3.3500    -4.8270     2.0290 cc         1 0OE      -0.260600
     39 H1           4.9940     2.7240    -1.8680 hn         1 0OE       0.323700
     40 H2           3.1870    -0.2290    -3.9240 h4         1 0OE       0.041100
     41 H3           3.4040     4.4510    -0.9260 ha         1 0OE       0.144000
     42 H4           1.9660     4.4480     3.1090 ha         1 0OE       0.149000
     43 H5           1.6250     2.0060     2.9820 ha         1 0OE       0.145000
     44 H6           2.1860     0.7730     0.9310 ha         1 0OE       0.146000
     45 H7          -0.6160    -3.4850    -1.0140 ha         1 0OE       0.122000
     46 H8          -2.9730    -3.1520    -0.4370 ha         1 0OE       0.138000
     47 H9          -2.5790     1.1150    -0.8260 ha         1 0OE       0.155000
     48 H10         -5.0080    -2.6280    -1.2900 ha         1 0OE       0.105500
     49 H11         -7.3720    -2.3670    -0.7240 ha         1 0OE       0.146500
     50 H12         -6.4840     1.2260     1.4010 ha         1 0OE       0.146500
     51 H13         -4.1110     0.9620     0.8730 ha         1 0OE       0.105500
     52 H15          1.6390    -3.0900    -2.0820 h1         1 0OE       0.058200
     53 H16          2.9010    -1.8840    -2.1650 h1         1 0OE       0.058200
     54 H17          2.8950    -1.6810     0.3340 hc         1 0OE       0.069200
     55 H18          1.6430    -2.9150     0.4290 hc         1 0OE       0.069200
     56 H19          3.1980    -4.5530    -0.6800 h1         1 0OE       0.058200
     57 H20          4.4430    -3.3170    -0.7430 h1         1 0OE       0.058200
     58 H21          5.7990    -2.8780     1.3030 h5         1 0OE       0.050100
     59 H22          3.9150    -5.3460     4.0890 h4         1 0OE       0.037100
     60 H23          2.4340    -5.3340     1.7720 h4         1 0OE       0.176000
@<TRIPOS>BOND
     1     1     2 1   
     2     1     5 1   
     3     1    39 1   
     4     2     3 2   
     5     3     4 1   
     6     3    40 1   
     7     4     5 2   
     8     4    12 1   
     9     5     6 1   
    10     6     7 ar  
    11     6    11 ar  
    12     7     8 ar  
    13     7    41 1   
    14     8     9 ar  
    15     8    30 1   
    16     9    10 ar  
    17     9    42 1   
    18    10    11 ar  
    19    10    43 1   
    20    11    44 1   
    21    12    13 1   
    22    12    16 2   
    23    13    14 1   
    24    13    31 1   
    25    14    15 ar  
    26    14    17 ar  
    27    15    16 1   
    28    15    20 ar  
    29    17    18 ar  
    30    17    45 1   
    31    18    19 ar  
    32    18    46 1   
    33    19    20 ar  
    34    19    21 1   
    35    20    47 1   
    36    21    22 ar  
    37    21    26 ar  
    38    22    23 ar  
    39    22    48 1   
    40    23    24 ar  
    41    23    49 1   
    42    24    25 ar  
    43    24    27 1   
    44    25    26 ar  
    45    25    50 1   
    46    26    51 1   
    47    27    28 1   
    48    27    29 1   
    49    31    32 1   
    50    31    52 1   
    51    31    53 1   
    52    32    33 1   
    53    32    54 1   
    54    32    55 1   
    55    33    34 1   
    56    33    56 1   
    57    33    57 1   
    58    34    35 1   
    59    34    38 1   
    60    35    36 2   
    61    35    58 1   
    62    36    37 1   
    63    37    38 2   
    64    37    59 1   
    65    38    60 1   
@<TRIPOS>SUBSTRUCTURE
     1 0OE         1 TEMP              0 ****  ****    0 ROOT
