@<TRIPOS>MOLECULE
0OF
   60    64     1     0     0
SMALL
No Charge or Current Charge


@<TRIPOS>ATOM
      1 C1          -1.5290    -1.7690    -1.8140 c3         1 0OF      -0.185400
      2 C2          -2.6980    -2.2440    -0.9700 c          1 0OF       0.575000
      3 N3          -2.8880    -1.6670     0.3100 n          1 0OF      -0.232400
      4 C4          -1.8970    -0.8480     0.9670 ca         1 0OF      -0.015000
      5 C5          -1.2420     0.2260     0.3070 ca         1 0OF      -0.051000
      6 N6          -1.6020     0.6490    -1.0340 n          1 0OF      -0.062000
      7 C7          -1.8290    -0.2970    -2.0780 c          1 0OF       0.580000
      8 O8          -3.4720    -3.0780    -1.4230 o          1 0OF      -0.523000
      9 O9          -2.2410     0.0320    -3.1840 o          1 0OF      -0.498000
     10 C10         -0.1710     0.8890     0.9520 ca         1 0OF      -0.058000
     11 C11          0.3140     0.4610     2.2020 ca         1 0OF      -0.192300
     12 C12         -0.2930    -0.6470     2.8150 ca         1 0OF      -0.056000
     13 C13         -1.3640    -1.3030     2.1930 ca         1 0OF      -0.119000
     14 C14         -1.6290     2.0890    -1.2590 ca         1 0OF      -0.060000
     15 C15         -2.0680     2.9570    -0.2310 ca         1 0OF      -0.099500
     16 C16         -2.0990     4.3480    -0.4240 ca         1 0OF      -0.101500
     17 C17         -1.6880     4.8990    -1.6470 ca         1 0OF      -0.103000
     18 C18         -1.2440     4.0540    -2.6760 ca         1 0OF      -0.101500
     19 C19         -1.2150     2.6620    -2.4860 ca         1 0OF      -0.099500
     20 C20          1.5050     1.1520     2.8760 c3         1 0OF       0.360300
     21 F21          1.1000     1.9530     3.8860 f          1 0OF      -0.111333
     22 F22          2.3730     0.2590     3.4020 f          1 0OF      -0.111333
     23 F23          2.2180     1.9240     2.0230 f          1 0OF      -0.111333
     24 C24         -4.0860    -2.0730     1.0930 c3         1 0OF       0.103000
     25 C25         -5.2620    -1.1020     0.8890 c3         1 0OF      -0.113100
     26 C26         -0.1400    -2.0880    -1.2260 ca         1 0OF      -0.031300
     27 C27          0.0530    -3.2570    -0.4620 ca         1 0OF      -0.199000
     28 C28          1.2910    -3.5130     0.1430 ca         1 0OF       0.147100
     29 C29          2.3490    -2.6070    -0.0060 ca         1 0OF      -0.131000
     30 C30          2.2010    -1.4380    -0.7870 cp         1 0OF       0.012000
     31 C31          0.9510    -1.2120    -1.4130 ca         1 0OF      -0.132000
     32 O32          1.4690    -4.6390     0.8890 oh         1 0OF      -0.531100
     33 C33          3.3180    -0.4520    -0.9230 cp         1 0OF      -0.099000
     34 C34          3.5210     0.2830    -2.1210 ca         1 0OF       0.347900
     35 N35          4.5070     1.1960    -2.2940 nb         1 0OF      -0.665000
     36 C36          5.3450     1.4210    -1.2570 ca         1 0OF       0.340900
     37 C37          5.2310     0.7520    -0.0280 ca         1 0OF      -0.160000
     38 C38          4.2100    -0.1950     0.1470 ca         1 0OF      -0.060000
     39 H1          -1.6170    -2.2860    -2.7750 hc         1 0OF       0.125700
     40 H2           0.3260     1.7130     0.4440 ha         1 0OF       0.147000
     41 H3           0.0790    -1.0200     3.7680 ha         1 0OF       0.135000
     42 H4          -1.7660    -2.1920     2.6730 ha         1 0OF       0.129000
     43 H5          -2.4090     2.5560     0.7210 ha         1 0OF       0.123000
     44 H6          -2.4450     5.0000     0.3760 ha         1 0OF       0.119000
     45 H7          -1.7100     5.9760    -1.7960 ha         1 0OF       0.117000
     46 H8          -0.9160     4.4790    -3.6220 ha         1 0OF       0.119000
     47 H9          -0.8330     2.0430    -3.2930 ha         1 0OF       0.123000
     48 H10         -4.3970    -3.0900     0.8230 h1         1 0OF       0.060700
     49 H11         -3.8500    -2.0920     2.1630 h1         1 0OF       0.060700
     50 H12         -6.1250    -1.4170     1.4880 hc         1 0OF       0.046700
     51 H13         -4.9810    -0.0870     1.1950 hc         1 0OF       0.046700
     52 H14         -5.5640    -1.0770    -0.1650 hc         1 0OF       0.046700
     53 H15         -0.7640    -3.9610    -0.3240 ha         1 0OF       0.122000
     54 H16          3.2970    -2.8220     0.4780 ha         1 0OF       0.135000
     55 H17          0.8220    -0.3130    -2.0090 ha         1 0OF       0.123000
     56 H18          0.6330    -5.1520     0.8800 ho         1 0OF       0.469000
     57 H19          2.8720     0.1250    -2.9810 h4         1 0OF       0.022100
     58 H20          6.1290     2.1600    -1.4160 h4         1 0OF       0.021100
     59 H21          5.9270     0.9730     0.7770 ha         1 0OF       0.127000
     60 H22          4.1030    -0.7070     1.1000 ha         1 0OF       0.125000
@<TRIPOS>BOND
     1     1     2 1   
     2     1     7 1   
     3     1    26 1   
     4     1    39 1   
     5     2     3 1   
     6     2     8 2   
     7     3     4 1   
     8     3    24 1   
     9     4     5 ar  
    10     4    13 ar  
    11     5     6 1   
    12     5    10 ar  
    13     6     7 1   
    14     6    14 1   
    15     7     9 2   
    16    10    11 ar  
    17    10    40 1   
    18    11    12 ar  
    19    11    20 1   
    20    12    13 ar  
    21    12    41 1   
    22    13    42 1   
    23    14    15 ar  
    24    14    19 ar  
    25    15    16 ar  
    26    15    43 1   
    27    16    17 ar  
    28    16    44 1   
    29    17    18 ar  
    30    17    45 1   
    31    18    19 ar  
    32    18    46 1   
    33    19    47 1   
    34    20    21 1   
    35    20    22 1   
    36    20    23 1   
    37    24    25 1   
    38    24    48 1   
    39    24    49 1   
    40    25    50 1   
    41    25    51 1   
    42    25    52 1   
    43    26    27 ar  
    44    26    31 ar  
    45    27    28 ar  
    46    27    53 1   
    47    28    29 ar  
    48    28    32 1   
    49    29    30 ar  
    50    29    54 1   
    51    30    31 ar  
    52    30    33 1   
    53    31    55 1   
    54    32    56 1   
    55    33    34 ar  
    56    33    38 ar  
    57    34    35 ar  
    58    34    57 1   
    59    35    36 ar  
    60    36    37 ar  
    61    36    58 1   
    62    37    38 ar  
    63    37    59 1   
    64    38    60 1   
@<TRIPOS>SUBSTRUCTURE
     1 0OF         1 TEMP              0 ****  ****    0 ROOT
