@<TRIPOS>MOLECULE
0OF
   60    64     1     0     0
SMALL
abcg2


@<TRIPOS>ATOM
      1 C1          -1.4750    -1.6740    -1.7940 c3         1 0OF      -0.185400
      2 C2          -2.6710    -2.0620    -0.9260 c          1 0OF       0.575000
      3 N3          -2.6630    -1.6130     0.3560 n          1 0OF      -0.232400
      4 C4          -1.6180    -0.8380     0.8910 ca         1 0OF      -0.015000
      5 C5          -1.1120     0.2800     0.2300 ca         1 0OF      -0.051000
      6 N6          -1.5780     0.6660    -1.0450 n          1 0OF      -0.062000
      7 C7          -1.6890    -0.1990    -2.1020 c          1 0OF       0.580000
      8 O8          -3.5950    -2.6970    -1.3950 o          1 0OF      -0.523000
      9 O9          -2.0290     0.1730    -3.2030 o          1 0OF      -0.498000
     10 C10         -0.0880     1.0260     0.8120 ca         1 0OF      -0.058000
     11 C11          0.4380     0.6620     2.0330 ca         1 0OF      -0.192300
     12 C12         -0.0530    -0.4630     2.6930 ca         1 0OF      -0.056000
     13 C13         -1.0630    -1.2000     2.1190 ca         1 0OF      -0.119000
     14 C14         -1.8240     2.0560    -1.2620 ca         1 0OF      -0.060000
     15 C15         -2.8760     2.6580    -0.5850 ca         1 0OF      -0.099500
     16 C16         -3.1150     4.0140    -0.7530 ca         1 0OF      -0.101500
     17 C17         -2.3100     4.7630    -1.6020 ca         1 0OF      -0.103000
     18 C18         -1.2610     4.1530    -2.2780 ca         1 0OF      -0.101500
     19 C19         -1.0110     2.8000    -2.1070 ca         1 0OF      -0.099500
     20 C20          1.5320     1.4620     2.6680 c3         1 0OF       0.360300
     21 F21          1.0770     2.1720     3.7110 f          1 0OF      -0.111333
     22 F22          2.5070     0.6750     3.1410 f          1 0OF      -0.111333
     23 F23          2.0960     2.3260     1.8220 f          1 0OF      -0.111333
     24 C24         -3.8380    -1.8660     1.1960 c3         1 0OF       0.103000
     25 C25         -4.8450    -0.7330     1.1100 c3         1 0OF      -0.113100
     26 C26         -0.1250    -2.0750    -1.2370 ca         1 0OF      -0.031300
     27 C27         -0.0020    -3.3090    -0.6100 ca         1 0OF      -0.199000
     28 C28          1.2170    -3.6960    -0.0650 ca         1 0OF       0.147100
     29 C29          2.3170    -2.8480    -0.1470 ca         1 0OF      -0.131000
     30 C30          2.2030    -1.6260    -0.7960 cp         1 0OF       0.012000
     31 C31          0.9840    -1.2540    -1.3610 ca         1 0OF      -0.132000
     32 O32          1.3890    -4.8770     0.5560 oh         1 0OF      -0.531100
     33 C33          3.3480    -0.7000    -0.8490 cp         1 0OF      -0.099000
     34 C34          3.6320     0.0350    -2.0000 ca         1 0OF       0.347900
     35 N35          4.6340     0.8960    -2.1000 nb         1 0OF      -0.665000
     36 C36          5.4150     1.0700    -1.0410 ca         1 0OF       0.340900
     37 C37          5.2290     0.3920     0.1550 ca         1 0OF      -0.160000
     38 C38          4.1790    -0.5040     0.2510 ca         1 0OF      -0.060000
     39 H1          -1.6210    -2.1920    -2.7430 hc         1 0OF       0.125700
     40 H2           0.2940     1.8840     0.2770 ha         1 0OF       0.147000
     41 H3           0.3560    -0.7780     3.6430 ha         1 0OF       0.135000
     42 H4          -1.4200    -2.0860     2.6260 ha         1 0OF       0.129000
     43 H5          -3.5040     2.0680     0.0700 ha         1 0OF       0.123000
     44 H6          -3.9350     4.4840    -0.2260 ha         1 0OF       0.119000
     45 H7          -2.4990     5.8190    -1.7360 ha         1 0OF       0.117000
     46 H8          -0.6290     4.7340    -2.9370 ha         1 0OF       0.119000
     47 H9          -0.1850     2.3300    -2.6250 ha         1 0OF       0.123000
     48 H10         -4.2830    -2.8080     0.8870 h1         1 0OF       0.060700
     49 H11         -3.5060    -1.9990     2.2240 h1         1 0OF       0.060700
     50 H12         -5.7010    -0.9510     1.7480 hc         1 0OF       0.046700
     51 H13         -4.4110     0.2090     1.4480 hc         1 0OF       0.046700
     52 H14         -5.2090    -0.6000     0.0920 hc         1 0OF       0.046700
     53 H15         -0.8580    -3.9720    -0.5300 ha         1 0OF       0.122000
     54 H16          3.2610    -3.1570     0.2850 ha         1 0OF       0.135000
     55 H17          0.9060    -0.2870    -1.8420 ha         1 0OF       0.123000
     56 H18          0.5650    -5.3770     0.5760 ho         1 0OF       0.469000
     57 H19          3.0230    -0.1000    -2.8890 h4         1 0OF       0.022100
     58 H20          6.2270     1.7810    -1.1460 h4         1 0OF       0.021100
     59 H21          5.8890     0.5710     0.9920 ha         1 0OF       0.127000
     60 H22          3.9970    -1.0370     1.1760 ha         1 0OF       0.125000
@<TRIPOS>BOND
     1     1     2 1   
     2     1     7 1   
     3     1    26 1   
     4     1    39 1   
     5     2     3 1   
     6     2     8 2   
     7     3     4 1   
     8     3    24 1   
     9     4     5 ar  
    10     4    13 ar  
    11     5     6 1   
    12     5    10 ar  
    13     6     7 1   
    14     6    14 1   
    15     7     9 2   
    16    10    11 ar  
    17    10    40 1   
    18    11    12 ar  
    19    11    20 1   
    20    12    13 ar  
    21    12    41 1   
    22    13    42 1   
    23    14    15 ar  
    24    14    19 ar  
    25    15    16 ar  
    26    15    43 1   
    27    16    17 ar  
    28    16    44 1   
    29    17    18 ar  
    30    17    45 1   
    31    18    19 ar  
    32    18    46 1   
    33    19    47 1   
    34    20    21 1   
    35    20    22 1   
    36    20    23 1   
    37    24    25 1   
    38    24    48 1   
    39    24    49 1   
    40    25    50 1   
    41    25    51 1   
    42    25    52 1   
    43    26    27 ar  
    44    26    31 ar  
    45    27    28 ar  
    46    27    53 1   
    47    28    29 ar  
    48    28    32 1   
    49    29    30 ar  
    50    29    54 1   
    51    30    31 ar  
    52    30    33 1   
    53    31    55 1   
    54    32    56 1   
    55    33    34 ar  
    56    33    38 ar  
    57    34    35 ar  
    58    34    57 1   
    59    35    36 ar  
    60    36    37 ar  
    61    36    58 1   
    62    37    38 ar  
    63    37    59 1   
    64    38    60 1   
@<TRIPOS>SUBSTRUCTURE
     1 0OF         1 TEMP              0 ****  ****    0 ROOT
