@<TRIPOS>MOLECULE
0OG
   64    69     1     0     0
SMALL
abcg2


@<TRIPOS>ATOM
      1 C01         -6.0580     1.3450    -1.4000 cc         1 0OG       0.240300
      2 C02         -6.5400     0.6160    -0.3010 cc         1 0OG      -0.212000
      3 C03         -5.4200     0.0660     0.2870 cd         1 0OG      -0.174500
      4 N04         -4.3650     0.4710    -0.4640 na         1 0OG       0.252000
      5 N05         -4.7430     1.2500    -1.4820 nd         1 0OG      -0.496800
      6 C06         -2.9990     0.1230    -0.3170 ca         1 0OG      -0.033200
      7 C07         -2.6400    -1.2320    -0.3180 ca         1 0OG      -0.102000
      8 C08         -1.3220    -1.6190    -0.1740 ca         1 0OG      -0.109000
      9 C09         -0.3760    -0.6080    -0.0500 ca         1 0OG      -0.080200
     10 C10         -0.7270     0.7520    -0.0700 ca         1 0OG       0.078400
     11 C11         -2.0610     1.1300    -0.1990 ca         1 0OG      -0.020000
     12 N12          0.9860    -0.6190     0.1010 na         1 0OG      -0.174600
     13 C13          1.3850     0.6870     0.1580 cc         1 0OG       0.530400
     14 N14          0.3940     1.5300     0.0630 nd         1 0OG      -0.561100
     15 C15          2.8040     1.0350     0.3210 ca         1 0OG      -0.202900
     16 C16          3.4580     0.7800     1.5200 ca         1 0OG      -0.038000
     17 C17          4.8150     1.0340     1.6810 ca         1 0OG      -0.178600
     18 C18          5.5100     1.5580     0.5950 ca         1 0OG      -0.038000
     19 C19          4.8790     1.8250    -0.6080 ca         1 0OG      -0.248000
     20 C20          3.5200     1.5630    -0.7570 ca         1 0OG       0.146100
     21 C21         -5.3250    -0.7600     1.4680 cd         1 0OG       0.195500
     22 C22         -6.1640    -1.6940     1.9850 cc         1 0OG      -0.161000
     23 C23         -5.5510    -2.1530     3.1870 cc         1 0OG      -0.203000
     24 C24         -4.3850    -1.4670     3.3130 cd         1 0OG       0.153300
     25 O25         -4.2490    -0.6160     2.2750 os         1 0OG      -0.218000
     26 C26         -3.3070    -1.4860     4.3280 c3         1 0OG      -0.126400
     27 C27         -6.8360     2.1850    -2.3600 c3         1 0OG      -0.096700
     28 C28         -6.7450     3.6750    -2.0350 c3         1 0OG      -0.086100
     29 C29          1.8610    -1.7810     0.0640 c3         1 0OG       0.151800
     30 C30          2.7370    -1.7770    -1.1520 cc         1 0OG      -0.241200
     31 C31          4.0800    -1.6060    -1.0540 cd         1 0OG       0.015600
     32 N32          4.8600    -1.5670    -2.1550 ns         1 0OG      -0.356100
     33 C33          4.4120    -1.6760    -3.4580 c          1 0OG       0.551200
     34 C34          2.9860    -1.8520    -3.5620 cd         1 0OG      -0.338200
     35 C35          2.1960    -1.8950    -2.4580 cc         1 0OG      -0.060000
     36 O36          5.2010    -1.6210    -4.3970 o          1 0OG      -0.579000
     37 O37          2.8620     1.7610    -1.9090 oh         1 0OG      -0.530100
     38 C38          5.5140     0.7440     3.0000 c          1 0OG       0.715600
     39 O39          6.7340     0.9890     3.0500 o          1 0OG      -0.715500
     40 O40          4.8050     0.2840     3.9170 o          1 0OG      -0.715500
     41 H1          -7.5590     0.5280     0.0400 ha         1 0OG       0.140000
     42 H2          -3.4050    -1.9870    -0.4390 ha         1 0OG       0.117000
     43 H3          -1.0580    -2.6680    -0.1710 ha         1 0OG       0.115000
     44 H4          -2.3520     2.1730    -0.2020 ha         1 0OG       0.144000
     45 H5           2.8990     0.3640     2.3490 ha         1 0OG       0.139000
     46 H6           6.5690     1.7620     0.6910 ha         1 0OG       0.133000
     47 H7           5.4450     2.2300    -1.4400 ha         1 0OG       0.099000
     48 H8          -7.0940    -2.0260     1.5530 ha         1 0OG       0.139000
     49 H9          -5.9250    -2.9010     3.8670 ha         1 0OG       0.136000
     50 H10         -2.3420    -1.7380     3.8850 hc         1 0OG       0.058367
     51 H11         -3.2010    -0.5190     4.8230 hc         1 0OG       0.058367
     52 H12         -3.5330    -2.2290     5.0890 hc         1 0OG       0.058367
     53 H13         -6.4740     2.0100    -3.3750 hc         1 0OG       0.045200
     54 H14         -7.8800     1.8660    -2.3420 hc         1 0OG       0.045200
     55 H15         -7.1270     3.8850    -1.0360 hc         1 0OG       0.035033
     56 H16         -5.7130     4.0210    -2.0790 hc         1 0OG       0.035033
     57 H17         -7.3270     4.2630    -2.7460 hc         1 0OG       0.035033
     58 H18          2.4640    -1.8150     0.9720 h1         1 0OG       0.066700
     59 H19          1.2250    -2.6660     0.0820 h1         1 0OG       0.066700
     60 H21          4.5910    -1.4830    -0.1090 h4         1 0OG       0.228000
     61 H22          2.5640    -1.9480    -4.5530 ha         1 0OG       0.201000
     62 H23          1.1270    -2.0250    -2.5810 ha         1 0OG       0.185000
     63 H24          3.4630     2.0870    -2.5880 ho         1 0OG       0.455000
     64 H20          5.8550    -1.4380    -2.0290 hn         1 0OG       0.331500
@<TRIPOS>BOND
     1     1     2 1   
     2     1     5 2   
     3     1    27 1   
     4     2     3 2   
     5     2    41 1   
     6     3     4 1   
     7     3    21 1   
     8     4     5 1   
     9     4     6 1   
    10     6     7 ar  
    11     6    11 ar  
    12     7     8 ar  
    13     7    42 1   
    14     8     9 ar  
    15     8    43 1   
    16     9    10 ar  
    17     9    12 1   
    18    10    11 ar  
    19    10    14 1   
    20    11    44 1   
    21    12    13 1   
    22    12    29 1   
    23    13    14 2   
    24    13    15 1   
    25    15    16 ar  
    26    15    20 ar  
    27    16    17 ar  
    28    16    45 1   
    29    17    18 ar  
    30    17    38 1   
    31    18    19 ar  
    32    18    46 1   
    33    19    20 ar  
    34    19    47 1   
    35    20    37 1   
    36    21    22 2   
    37    21    25 1   
    38    22    23 1   
    39    22    48 1   
    40    23    24 2   
    41    23    49 1   
    42    24    25 1   
    43    24    26 1   
    44    26    50 1   
    45    26    51 1   
    46    26    52 1   
    47    27    28 1   
    48    27    53 1   
    49    27    54 1   
    50    28    55 1   
    51    28    56 1   
    52    28    57 1   
    53    29    30 1   
    54    29    58 1   
    55    29    59 1   
    56    30    31 2   
    57    30    35 1   
    58    31    32 1   
    59    31    60 1   
    60    32    33 1   
    61    32    64 1   
    62    33    34 1   
    63    33    36 2   
    64    34    35 2   
    65    34    61 1   
    66    35    62 1   
    67    37    63 1   
    68    38    39 1   
    69    38    40 1   
@<TRIPOS>SUBSTRUCTURE
     1 0OG         1 TEMP              0 ****  ****    0 ROOT
