@<TRIPOS>MOLECULE
0OG
   64    69     1     0     0
SMALL
No Charge or Current Charge


@<TRIPOS>ATOM
      1 C01         -6.1760     0.9200    -1.6210 cc         1 0OG       0.240300
      2 C02         -6.3860     0.6710    -0.2460 cc         1 0OG      -0.212000
      3 C03         -5.1850     0.2640     0.2520 cd         1 0OG      -0.174500
      4 N04         -4.3360     0.2930    -0.8560 na         1 0OG       0.252000
      5 N05         -4.9370     0.7040    -2.0310 nd         1 0OG      -0.496800
      6 C06         -3.0000    -0.0580    -0.6870 ca         1 0OG      -0.033200
      7 C07         -2.5860    -1.3980    -0.8940 ca         1 0OG      -0.102000
      8 C08         -1.2380    -1.7660    -0.7030 ca         1 0OG      -0.109000
      9 C09         -0.3390    -0.7630    -0.3080 ca         1 0OG      -0.080200
     10 C10         -0.7250     0.5360    -0.1120 ca         1 0OG       0.078400
     11 C11         -2.0600     0.9230    -0.2970 ca         1 0OG      -0.020000
     12 N12          1.0010    -0.8060    -0.0430 na         1 0OG      -0.174600
     13 C13          1.3950     0.4940     0.2930 cc         1 0OG       0.530400
     14 N14          0.3440     1.3410     0.2740 nd         1 0OG      -0.561100
     15 C15          2.7610     0.8570     0.6730 ca         1 0OG      -0.202900
     16 C16          3.3800     0.1910     1.7520 ca         1 0OG      -0.038000
     17 C17          4.7010     0.5060     2.1450 ca         1 0OG      -0.178600
     18 C18          5.3950     1.5130     1.4380 ca         1 0OG      -0.038000
     19 C19          4.7790     2.1840     0.3690 ca         1 0OG      -0.248000
     20 C20          3.4690     1.8630    -0.0100 ca         1 0OG       0.146100
     21 C21         -4.9040    -0.1020     1.6180 cd         1 0OG       0.195500
     22 C22         -5.8400    -0.0840     2.6170 cc         1 0OG      -0.161000
     23 C23         -5.1610    -0.5020     3.7780 cc         1 0OG      -0.203000
     24 C24         -3.8650    -0.7440     3.4050 cd         1 0OG       0.153300
     25 O25         -3.6690    -0.5070     2.0650 os         1 0OG      -0.218000
     26 C26         -2.6990    -1.2110     4.2270 c3         1 0OG      -0.126400
     27 C27         -7.2780     1.4000    -2.5280 c3         1 0OG      -0.096700
     28 C28         -7.5110     2.9210    -2.4390 c3         1 0OG      -0.086100
     29 C29          1.8540    -1.9820    -0.2880 c3         1 0OG       0.151800
     30 C30          2.7460    -1.7970    -1.4910 cc         1 0OG      -0.241200
     31 C31          4.0920    -1.4870    -1.3940 cd         1 0OG       0.015600
     32 N32          4.8460    -1.3170    -2.5440 ns         1 0OG      -0.356100
     33 C33          4.3850    -1.4260    -3.8310 c          1 0OG       0.551200
     34 C34          2.9550    -1.7530    -3.9180 cd         1 0OG      -0.338200
     35 C35          2.1650    -1.9310    -2.8020 cc         1 0OG      -0.060000
     36 O36          5.1060    -1.2630    -4.8010 o          1 0OG      -0.579000
     37 O37          2.9170     2.5130    -1.0710 oh         1 0OG      -0.530100
     38 C38          5.3580    -0.2190     3.3040 c          1 0OG       0.715600
     39 O39          6.4820     0.1200     3.6450 o          1 0OG      -0.715500
     40 O40          4.7410    -1.1210     3.8530 o          1 0OG      -0.715500
     41 H1          -7.3280     0.7920     0.2790 ha         1 0OG       0.140000
     42 H2          -3.3120    -2.1500    -1.1940 ha         1 0OG       0.117000
     43 H3          -0.9230    -2.7950    -0.8560 ha         1 0OG       0.115000
     44 H4          -2.3620     1.9540    -0.1340 ha         1 0OG       0.144000
     45 H5           2.8240    -0.5720     2.2950 ha         1 0OG       0.139000
     46 H6           6.4140     1.7780     1.7150 ha         1 0OG       0.133000
     47 H7           5.3330     2.9530    -0.1630 ha         1 0OG       0.099000
     48 H8          -6.8870     0.1920     2.5480 ha         1 0OG       0.139000
     49 H9          -5.5910    -0.6070     4.7700 ha         1 0OG       0.136000
     50 H10         -2.4330    -2.2440     3.9730 hc         1 0OG       0.058367
     51 H11         -1.8190    -0.5820     4.0500 hc         1 0OG       0.058367
     52 H12         -2.9310    -1.1750     5.2980 hc         1 0OG       0.058367
     53 H13         -7.0480     1.1350    -3.5670 hc         1 0OG       0.045200
     54 H14         -8.2110     0.8810    -2.2760 hc         1 0OG       0.045200
     55 H15         -7.7870     3.2110    -1.4190 hc         1 0OG       0.035033
     56 H16         -6.6030     3.4670    -2.7200 hc         1 0OG       0.035033
     57 H17         -8.3190     3.2250    -3.1150 hc         1 0OG       0.035033
     58 H18          2.4690    -2.1650     0.6020 h1         1 0OG       0.066700
     59 H19          1.2320    -2.8740    -0.4290 h1         1 0OG       0.066700
     60 H21          4.6360    -1.3520    -0.4610 h4         1 0OG       0.228000
     61 H22          2.5630    -1.8430    -4.9250 ha         1 0OG       0.201000
     62 H23          1.1060    -2.1670    -2.8990 ha         1 0OG       0.185000
     63 H24          3.5690     3.1680    -1.3990 ho         1 0OG       0.455000
     64 H20          5.8310    -1.0890    -2.4740 hn         1 0OG       0.331500
@<TRIPOS>BOND
     1     1     2 1   
     2     1     5 2   
     3     1    27 1   
     4     2     3 2   
     5     2    41 1   
     6     3     4 1   
     7     3    21 1   
     8     4     5 1   
     9     4     6 1   
    10     6     7 ar  
    11     6    11 ar  
    12     7     8 ar  
    13     7    42 1   
    14     8     9 ar  
    15     8    43 1   
    16     9    10 ar  
    17     9    12 1   
    18    10    11 ar  
    19    10    14 1   
    20    11    44 1   
    21    12    13 1   
    22    12    29 1   
    23    13    14 2   
    24    13    15 1   
    25    15    16 ar  
    26    15    20 ar  
    27    16    17 ar  
    28    16    45 1   
    29    17    18 ar  
    30    17    38 1   
    31    18    19 ar  
    32    18    46 1   
    33    19    20 ar  
    34    19    47 1   
    35    20    37 1   
    36    21    22 2   
    37    21    25 1   
    38    22    23 1   
    39    22    48 1   
    40    23    24 2   
    41    23    49 1   
    42    24    25 1   
    43    24    26 1   
    44    26    50 1   
    45    26    51 1   
    46    26    52 1   
    47    27    28 1   
    48    27    53 1   
    49    27    54 1   
    50    28    55 1   
    51    28    56 1   
    52    28    57 1   
    53    29    30 1   
    54    29    58 1   
    55    29    59 1   
    56    30    31 2   
    57    30    35 1   
    58    31    32 1   
    59    31    60 1   
    60    32    33 1   
    61    32    64 1   
    62    33    34 1   
    63    33    36 2   
    64    34    35 2   
    65    34    61 1   
    66    35    62 1   
    67    37    63 1   
    68    38    39 1   
    69    38    40 1   
@<TRIPOS>SUBSTRUCTURE
     1 0OG         1 TEMP              0 ****  ****    0 ROOT
