@<TRIPOS>MOLECULE
0OI
   21    21     1     0     0
SMALL
bcc


@<TRIPOS>ATOM
      1 O12         29.0670   -47.0900    -5.4960 o          1 0OI      -0.620100
      2 C01         27.9330   -49.3330    -6.6610 c3         1 0OI       0.111300
      3 C03         28.3450   -47.8000    -4.8140 c          1 0OI       0.792100
      4 C05         28.5250   -46.4070    -2.8070 ca         1 0OI       0.044600
      5 C06         29.8430   -45.9580    -2.8680 ca         1 0OI      -0.106000
      6 C07         30.2430   -44.8380    -2.1530 ca         1 0OI      -0.124000
      7 C08         29.3440   -44.1570    -1.3450 ca         1 0OI      -0.122000
      8 C09         28.0320   -44.5990    -1.2530 ca         1 0OI      -0.148000
      9 C10         27.6480   -45.7010    -1.9870 ca         1 0OI       0.084900
     10 F11         26.3750   -46.1270    -1.9040 f          1 0OI      -0.153900
     11 N02         27.7530   -48.9150    -5.2920 ns         1 0OI      -0.594900
     12 N04         28.0700   -47.5380    -3.4870 ns         1 0OI      -0.496100
     13 H1          27.3500   -50.2360    -6.8180 h1         1 0OI       0.040367
     14 H2          27.5860   -48.5790    -7.3680 h1         1 0OI       0.040367
     15 H3          28.9760   -49.5600    -6.8870 h1         1 0OI       0.040367
     16 H4          30.5610   -46.4920    -3.4720 ha         1 0OI       0.156000
     17 H5          31.2710   -44.5080    -2.2200 ha         1 0OI       0.138000
     18 H6          29.6590   -43.2890    -0.7810 ha         1 0OI       0.137000
     19 H7          27.3090   -44.0900    -0.6290 ha         1 0OI       0.149000
     20 H8          27.1850   -49.4910    -4.6930 hn         1 0OI       0.314500
     21 H9          27.3170   -48.0490    -3.0530 hn         1 0OI       0.319500
@<TRIPOS>BOND
     1     1     3 2   
     2     2    11 1   
     3     2    13 1   
     4     2    14 1   
     5     2    15 1   
     6     3    11 1   
     7     3    12 1   
     8     4     5 ar  
     9     4     9 ar  
    10     4    12 1   
    11     5     6 ar  
    12     5    16 1   
    13     6     7 ar  
    14     6    17 1   
    15     7     8 ar  
    16     7    18 1   
    17     8     9 ar  
    18     8    19 1   
    19     9    10 1   
    20    11    20 1   
    21    12    21 1   
@<TRIPOS>SUBSTRUCTURE
     1 0OI         1 TEMP              0 ****  ****    0 ROOT
