@<TRIPOS>MOLECULE
0OI
   21    21     1     0     0
SMALL
No Charge or Current Charge


@<TRIPOS>ATOM
      1 O12         29.5950   -47.6310    -5.3970 o          1 0OI      -0.620100
      2 C01         27.9450   -49.6140    -6.6120 c3         1 0OI       0.111300
      3 C03         28.5010   -47.8640    -4.9030 c          1 0OI       0.658100
      4 C05         28.4850   -46.2230    -2.9220 ca         1 0OI      -0.048000
      5 C06         29.7530   -45.6200    -3.0950 ca         1 0OI      -0.088000
      6 C07         30.1930   -44.6210    -2.2070 ca         1 0OI      -0.106000
      7 C08         29.3780   -44.2120    -1.1380 ca         1 0OI      -0.104000
      8 C09         28.1180   -44.8040    -0.9570 ca         1 0OI      -0.130000
      9 C10         27.6780   -45.8010    -1.8430 ca         1 0OI       0.120000
     10 F11         26.4610   -46.3590    -1.6500 f          1 0OI      -0.189000
     11 N02         27.6480   -48.8040    -5.4280 ns         1 0OI      -0.527900
     12 N04         27.9770   -47.2400    -3.7820 ns         1 0OI      -0.170000
     13 H1          27.1020   -50.2850    -6.8190 h1         1 0OI       0.040367
     14 H2          28.1080   -48.9590    -7.4780 h1         1 0OI       0.040367
     15 H3          28.8480   -50.2140    -6.4330 h1         1 0OI       0.040367
     16 H4          30.4120   -45.9080    -3.9080 ha         1 0OI       0.138000
     17 H5          31.1700   -44.1630    -2.3490 ha         1 0OI       0.120000
     18 H6          29.7220   -43.4390    -0.4540 ha         1 0OI       0.119000
     19 H7          27.4820   -44.4930    -0.1320 ha         1 0OI       0.131000
     20 H8          26.7600   -48.9390    -4.9610 hn         1 0OI       0.314500
     21 H9          27.0560   -47.5640    -3.5200 hn         1 0OI       0.153000
@<TRIPOS>BOND
     1     1     3 2   
     2     2    11 1   
     3     2    13 1   
     4     2    14 1   
     5     2    15 1   
     6     3    11 1   
     7     3    12 1   
     8     4     5 ar  
     9     4     9 ar  
    10     4    12 1   
    11     5     6 ar  
    12     5    16 1   
    13     6     7 ar  
    14     6    17 1   
    15     7     8 ar  
    16     7    18 1   
    17     8     9 ar  
    18     8    19 1   
    19     9    10 1   
    20    11    20 1   
    21    12    21 1   
@<TRIPOS>SUBSTRUCTURE
     1 0OI         1 TEMP              0 ****  ****    0 ROOT
