@<TRIPOS>MOLECULE
0OK
   27    29     1     0     0
SMALL
abcg2


@<TRIPOS>ATOM
      1 CAG         -2.5490    -0.5080    -1.1200 ca         1 0OK      -0.094500
      2 CAC         -3.9280    -0.6550    -1.0770 ca         1 0OK      -0.103500
      3 CAB         -4.6470    -0.1840     0.0140 ca         1 0OK      -0.100000
      4 CAD         -3.9870     0.4350     1.0670 ca         1 0OK      -0.103500
      5 CAH         -2.6060     0.5790     1.0340 ca         1 0OK      -0.094500
      6 CAM         -1.8990     0.1090    -0.0620 ca         1 0OK       0.021600
      7 NAQ         -0.4810     0.2860    -0.1050 n          1 0OK      -0.265500
      8 CAK          0.0190     1.5350    -0.3550 cc         1 0OK       0.510800
      9 NAL          1.2580     1.8420    -0.3980 nd         1 0OK      -0.623100
     10 CAO          2.1680     0.8320    -0.1750 ca         1 0OK       0.180400
     11 CAI          3.5350     1.1320    -0.2130 ca         1 0OK      -0.103000
     12 CAE          4.4660     0.1410     0.0070 ca         1 0OK      -0.075000
     13 CAF          4.0610    -1.1730     0.2700 ca         1 0OK      -0.133000
     14 CAJ          2.7190    -1.4830     0.3090 ca         1 0OK      -0.042000
     15 CAP          1.7650    -0.4860     0.0870 ca         1 0OK      -0.200600
     16 CAN          0.3440    -0.8070     0.1350 c          1 0OK       0.577600
     17 OAA         -0.1200    -1.9060     0.3640 o          1 0OK      -0.518000
     18 H1          -1.9860    -0.8640    -1.9730 ha         1 0OK       0.126000
     19 H2          -4.4400    -1.1330    -1.9010 ha         1 0OK       0.119500
     20 H3          -5.7230    -0.2970     0.0430 ha         1 0OK       0.117000
     21 H4          -4.5430     0.8040     1.9180 ha         1 0OK       0.119500
     22 H5          -2.0830     1.0520     1.8550 ha         1 0OK       0.126000
     23 H6          -0.7310     2.2980    -0.5280 h5         1 0OK       0.052800
     24 H7           3.8410     2.1500    -0.4180 ha         1 0OK       0.133000
     25 H8           5.5210     0.3790    -0.0240 ha         1 0OK       0.117000
     26 H9           4.8010    -1.9420     0.4410 ha         1 0OK       0.120000
     27 H10          2.3970    -2.4960     0.5130 ha         1 0OK       0.136000
@<TRIPOS>BOND
     1     1     2 ar  
     2     1     6 ar  
     3     1    18 1   
     4     2     3 ar  
     5     2    19 1   
     6     3     4 ar  
     7     3    20 1   
     8     4     5 ar  
     9     4    21 1   
    10     5     6 ar  
    11     5    22 1   
    12     6     7 1   
    13     7     8 1   
    14     7    16 1   
    15     8     9 2   
    16     8    23 1   
    17     9    10 1   
    18    10    11 ar  
    19    10    15 ar  
    20    11    12 ar  
    21    11    24 1   
    22    12    13 ar  
    23    12    25 1   
    24    13    14 ar  
    25    13    26 1   
    26    14    15 ar  
    27    14    27 1   
    28    15    16 1   
    29    16    17 2   
@<TRIPOS>SUBSTRUCTURE
     1 0OK         1 TEMP              0 ****  ****    0 ROOT
