@<TRIPOS>MOLECULE
0OK
   27    29     1     0     0
SMALL
No Charge or Current Charge


@<TRIPOS>ATOM
      1 CAG         -2.5570    -0.8810    -0.7950 ca         1 0OK      -0.094500
      2 CAC         -3.9570    -0.9930    -0.8520 ca         1 0OK      -0.103500
      3 CAB         -4.7630    -0.1420    -0.0820 ca         1 0OK      -0.100000
      4 CAD         -4.1660     0.8330     0.7310 ca         1 0OK      -0.103500
      5 CAH         -2.7660     0.9470     0.7850 ca         1 0OK      -0.094500
      6 CAM         -1.9350     0.0610     0.0580 ca         1 0OK       0.021600
      7 NAQ         -0.4960     0.2430     0.0200 n          1 0OK      -0.265500
      8 CAK          0.0230     1.5360     0.1140 cc         1 0OK       0.510800
      9 NAL          1.3110     1.8950     0.1260 nd         1 0OK      -0.623100
     10 CAO          2.2180     0.8350     0.0520 ca         1 0OK       0.180400
     11 CAI          3.5890     1.1550     0.0400 ca         1 0OK      -0.103000
     12 CAE          4.5660     0.1480    -0.0290 ca         1 0OK      -0.075000
     13 CAF          4.1750    -1.1970    -0.0850 ca         1 0OK      -0.133000
     14 CAJ          2.8120    -1.5290    -0.0710 ca         1 0OK      -0.042000
     15 CAP          1.8330    -0.5120    -0.0050 ca         1 0OK      -0.200600
     16 CAN          0.3850    -0.8460     0.0220 c          1 0OK       0.577600
     17 OAA          0.0050    -2.0100     0.0700 o          1 0OK      -0.518000
     18 H1          -1.9590    -1.5250    -1.4350 ha         1 0OK       0.126000
     19 H2          -4.4170    -1.7330    -1.5040 ha         1 0OK       0.119500
     20 H3          -5.8470    -0.2270    -0.1270 ha         1 0OK       0.117000
     21 H4          -4.7890     1.5050     1.3180 ha         1 0OK       0.119500
     22 H5          -2.3370     1.7080     1.4330 ha         1 0OK       0.126000
     23 H6          -0.7220     2.3190     0.1260 h5         1 0OK       0.052800
     24 H7           3.8970     2.1960     0.0850 ha         1 0OK       0.133000
     25 H8           5.6220     0.4120    -0.0380 ha         1 0OK       0.117000
     26 H9           4.9270    -1.9820    -0.1370 ha         1 0OK       0.120000
     27 H10          2.5200    -2.5780    -0.1130 ha         1 0OK       0.136000
@<TRIPOS>BOND
     1     1     2 ar  
     2     1     6 ar  
     3     1    18 1   
     4     2     3 ar  
     5     2    19 1   
     6     3     4 ar  
     7     3    20 1   
     8     4     5 ar  
     9     4    21 1   
    10     5     6 ar  
    11     5    22 1   
    12     6     7 1   
    13     7     8 1   
    14     7    16 1   
    15     8     9 2   
    16     8    23 1   
    17     9    10 1   
    18    10    11 ar  
    19    10    15 ar  
    20    11    12 ar  
    21    11    24 1   
    22    12    13 ar  
    23    12    25 1   
    24    13    14 ar  
    25    13    26 1   
    26    14    15 ar  
    27    14    27 1   
    28    15    16 1   
    29    16    17 2   
@<TRIPOS>SUBSTRUCTURE
     1 0OK         1 TEMP              0 ****  ****    0 ROOT
