@<TRIPOS>MOLECULE
0OL
   29    30     1     0     0
SMALL
No Charge or Current Charge


@<TRIPOS>ATOM
      1 CAJ         -2.4420    -0.8440     0.7140 c6         1 0OL       0.095000
      2 CAH         -3.4960    -0.4770    -0.3570 c6         1 0OL      -0.100900
      3 CAG         -3.6290     1.0570    -0.4900 c6         1 0OL      -0.074400
      4 CAI         -2.2480     1.6930    -0.7660 c6         1 0OL      -0.100900
      5 CAK         -1.2080     1.2720     0.3010 c6         1 0OL       0.095000
      6 NAN         -1.1230    -0.2110     0.4350 n          1 0OL      -0.400800
      7 CAL         -0.0530    -0.9570    -0.1150 c          1 0OL       0.613700
      8 OAA         -0.2350    -2.0930    -0.5390 o          1 0OL      -0.596100
      9 CAM          1.3450    -0.3740    -0.0730 ca         1 0OL      -0.141600
     10 CAE          1.7650     0.4810     0.9740 ca         1 0OL      -0.077500
     11 CAC          3.0760     0.9870     1.0010 ca         1 0OL      -0.117500
     12 CAB          3.9890     0.6350    -0.0050 ca         1 0OL      -0.096000
     13 CAD          3.5930    -0.2330    -1.0350 ca         1 0OL      -0.117500
     14 CAF          2.2820    -0.7410    -1.0640 ca         1 0OL      -0.077500
     15 H1          -2.7930    -0.5030     1.6980 h1         1 0OL       0.056700
     16 H2          -2.3430    -1.9370     0.7750 h1         1 0OL       0.056700
     17 H3          -3.2050    -0.9120    -1.3230 hc         1 0OL       0.049700
     18 H4          -4.4670    -0.9180    -0.0920 hc         1 0OL       0.049700
     19 H5          -4.3290     1.3060    -1.3000 hc         1 0OL       0.041200
     20 H6          -4.0530     1.4750     0.4330 hc         1 0OL       0.041200
     21 H7          -1.8930     1.3860    -1.7600 hc         1 0OL       0.049700
     22 H8          -2.3360     2.7880    -0.7900 hc         1 0OL       0.049700
     23 H9          -0.2390     1.7030     0.0170 h1         1 0OL       0.056700
     24 H10         -1.4850     1.7020     1.2740 h1         1 0OL       0.056700
     25 H11          1.0820     0.7440     1.7790 ha         1 0OL       0.121500
     26 H12          3.3860     1.6470     1.8090 ha         1 0OL       0.115500
     27 H13          5.0040     1.0260     0.0180 ha         1 0OL       0.114000
     28 H14          4.3020    -0.5150    -1.8100 ha         1 0OL       0.115500
     29 H15          1.9910    -1.4150    -1.8680 ha         1 0OL       0.121500
@<TRIPOS>BOND
     1     1     2 1   
     2     1     6 1   
     3     1    15 1   
     4     1    16 1   
     5     2     3 1   
     6     2    17 1   
     7     2    18 1   
     8     3     4 1   
     9     3    19 1   
    10     3    20 1   
    11     4     5 1   
    12     4    21 1   
    13     4    22 1   
    14     5     6 1   
    15     5    23 1   
    16     5    24 1   
    17     6     7 1   
    18     7     8 2   
    19     7     9 1   
    20     9    10 ar  
    21     9    14 ar  
    22    10    11 ar  
    23    10    25 1   
    24    11    12 ar  
    25    11    26 1   
    26    12    13 ar  
    27    12    27 1   
    28    13    14 ar  
    29    13    28 1   
    30    14    29 1   
@<TRIPOS>SUBSTRUCTURE
     1 0OL         1 TEMP              0 ****  ****    0 ROOT
