@<TRIPOS>MOLECULE
0OL
   29    30     1     0     0
SMALL
bcc


@<TRIPOS>ATOM
      1 CAJ         -2.4470    -0.8060     0.7140 c6         1 0OL       0.095000
      2 CAH         -3.3960    -0.4780    -0.4310 c6         1 0OL      -0.100900
      3 CAG         -3.4790     1.0300    -0.6410 c6         1 0OL      -0.074400
      4 CAI         -2.0870     1.6260    -0.8110 c6         1 0OL      -0.100900
      5 CAK         -1.1700     1.2340     0.3430 c6         1 0OL       0.095000
      6 NAN         -1.1340    -0.2150     0.4960 n          1 0OL      -0.467800
      7 CAL         -0.0910    -0.9930     0.1470 c          1 0OL       0.680700
      8 OAA         -0.1850    -2.2000    -0.0460 o          1 0OL      -0.596100
      9 CAM          1.2570    -0.3470     0.0470 ca         1 0OL      -0.141600
     10 CAE          1.8090     0.3300     1.1320 ca         1 0OL      -0.095500
     11 CAC          3.1000     0.8320     1.0590 ca         1 0OL      -0.135500
     12 CAB          3.8420     0.6750    -0.1050 ca         1 0OL      -0.114000
     13 CAD          3.2950    -0.0000    -1.1880 ca         1 0OL      -0.135500
     14 CAF          2.0120    -0.5240    -1.1080 ca         1 0OL      -0.095500
     15 H1          -2.8440    -0.3970     1.6490 h1         1 0OL       0.056700
     16 H2          -2.3430    -1.8790     0.8470 h1         1 0OL       0.056700
     17 H3          -3.0440    -0.9680    -1.3440 hc         1 0OL       0.049700
     18 H4          -4.3820    -0.8910    -0.2070 hc         1 0OL       0.049700
     19 H5          -4.1010     1.2620    -1.5080 hc         1 0OL       0.041200
     20 H6          -3.9670     1.4910     0.2250 hc         1 0OL       0.041200
     21 H7          -1.6430     1.2770    -1.7480 hc         1 0OL       0.049700
     22 H8          -2.1350     2.7160    -0.8670 hc         1 0OL       0.049700
     23 H9          -0.1690     1.6190     0.1710 h1         1 0OL       0.056700
     24 H10         -1.5300     1.6770     1.2770 h1         1 0OL       0.056700
     25 H11          1.2330     0.4590     2.0410 ha         1 0OL       0.139500
     26 H12          3.5250     1.3480     1.9100 ha         1 0OL       0.133500
     27 H13          4.8450     1.0760    -0.1670 ha         1 0OL       0.132000
     28 H14          3.8700    -0.1230    -2.0960 ha         1 0OL       0.133500
     29 H15          1.5950    -1.0590    -1.9520 ha         1 0OL       0.139500
@<TRIPOS>BOND
     1     1     2 1   
     2     1     6 1   
     3     1    15 1   
     4     1    16 1   
     5     2     3 1   
     6     2    17 1   
     7     2    18 1   
     8     3     4 1   
     9     3    19 1   
    10     3    20 1   
    11     4     5 1   
    12     4    21 1   
    13     4    22 1   
    14     5     6 1   
    15     5    23 1   
    16     5    24 1   
    17     6     7 1   
    18     7     8 2   
    19     7     9 1   
    20     9    10 ar  
    21     9    14 ar  
    22    10    11 ar  
    23    10    25 1   
    24    11    12 ar  
    25    11    26 1   
    26    12    13 ar  
    27    12    27 1   
    28    13    14 ar  
    29    13    28 1   
    30    14    29 1   
@<TRIPOS>SUBSTRUCTURE
     1 0OL         1 TEMP              0 ****  ****    0 ROOT
