@<TRIPOS>MOLECULE
0OM
   27    28     1     0     0
SMALL
abcg2


@<TRIPOS>ATOM
      1 CAG         -3.0290    -0.0980     1.2090 ca         1 0OM      -0.084500
      2 CAC         -4.1150     0.7670     1.2000 ca         1 0OM      -0.114500
      3 CAB         -4.6200     1.2360    -0.0060 ca         1 0OM      -0.096000
      4 CAD         -4.0370     0.8350    -1.2020 ca         1 0OM      -0.114500
      5 CAH         -2.9520    -0.0310    -1.1900 ca         1 0OM      -0.084500
      6 CAO         -2.4410    -0.5050     0.0150 ca         1 0OM      -0.102300
      7 CAK         -1.2620    -1.4270     0.0260 c3         1 0OM       0.215900
      8 OAM         -0.0820    -0.6040     0.0260 os         1 0OM      -0.439100
      9 CAN          1.0920    -1.2100     0.0230 c          1 0OM       0.613700
     10 OAA          1.2340    -2.4090     0.0290 o          1 0OM      -0.492000
     11 CAP          2.2260    -0.2530     0.0110 ca         1 0OM      -0.199600
     12 CAI          3.5270    -0.7460     0.0430 ca         1 0OM      -0.021000
     13 CAE          4.5800     0.1500     0.0310 ca         1 0OM      -0.180000
     14 CAF          4.2900     1.5070    -0.0170 ca         1 0OM       0.361900
     15 NAL          3.0540     1.9900    -0.0500 nb         1 0OM      -0.677000
     16 CAJ          2.0470     1.1280    -0.0360 ca         1 0OM       0.390900
     17 H1          -2.6400    -0.4630     2.1520 ha         1 0OM       0.115000
     18 H2          -4.5690     1.0710     2.1340 ha         1 0OM       0.115000
     19 H3          -5.4690     1.9070    -0.0150 ha         1 0OM       0.114000
     20 H4          -4.4300     1.1920    -2.1450 ha         1 0OM       0.115000
     21 H5          -2.5040    -0.3450    -2.1250 ha         1 0OM       0.115000
     22 H6          -1.2660    -2.0620     0.9140 h1         1 0OM       0.057700
     23 H7          -1.2580    -2.0710    -0.8550 h1         1 0OM       0.057700
     24 H8           3.7100    -1.8120     0.0790 ha         1 0OM       0.141000
     25 H9           5.6060    -0.1890     0.0560 ha         1 0OM       0.130000
     26 H10          5.0930     2.2340    -0.0280 h4         1 0OM       0.021100
     27 H11          1.0530     1.5560    -0.0650 h4         1 0OM       0.039100
@<TRIPOS>BOND
     1     1     2 ar  
     2     1     6 ar  
     3     1    17 1   
     4     2     3 ar  
     5     2    18 1   
     6     3     4 ar  
     7     3    19 1   
     8     4     5 ar  
     9     4    20 1   
    10     5     6 ar  
    11     5    21 1   
    12     6     7 1   
    13     7     8 1   
    14     7    22 1   
    15     7    23 1   
    16     8     9 1   
    17     9    10 2   
    18     9    11 1   
    19    11    12 ar  
    20    11    16 ar  
    21    12    13 ar  
    22    12    24 1   
    23    13    14 ar  
    24    13    25 1   
    25    14    15 ar  
    26    14    26 1   
    27    15    16 ar  
    28    16    27 1   
@<TRIPOS>SUBSTRUCTURE
     1 0OM         1 TEMP              0 ****  ****    0 ROOT
