@<TRIPOS>MOLECULE
0OM
   27    28     1     0     0
SMALL
No Charge or Current Charge


@<TRIPOS>ATOM
      1 CAG         -3.0480    -0.0510     1.2150 ca         1 0OM      -0.084500
      2 CAC         -4.1660     0.8020     1.2090 ca         1 0OM      -0.114500
      3 CAB         -4.7200     1.2270    -0.0100 ca         1 0OM      -0.096000
      4 CAD         -4.1550     0.7990    -1.2240 ca         1 0OM      -0.114500
      5 CAH         -3.0380    -0.0550    -1.2180 ca         1 0OM      -0.084500
      6 CAO         -2.4800    -0.4860     0.0020 ca         1 0OM      -0.102300
      7 CAK         -1.2690    -1.4090     0.0080 c3         1 0OM       0.215900
      8 OAM         -0.0840    -0.5950     0.0100 os         1 0OM      -0.439100
      9 CAN          1.1310    -1.2260     0.0160 c          1 0OM       0.613700
     10 OAA          1.2610    -2.4430     0.0190 o          1 0OM      -0.492000
     11 CAP          2.2980    -0.2860     0.0180 ca         1 0OM      -0.199600
     12 CAI          3.6200    -0.7750     0.0230 ca         1 0OM      -0.021000
     13 CAE          4.6740     0.1510     0.0250 ca         1 0OM      -0.180000
     14 CAF          4.3810     1.5230     0.0200 ca         1 0OM       0.361900
     15 NAL          3.1170     2.0020     0.0150 nb         1 0OM      -0.677000
     16 CAJ          2.0980     1.1070     0.0130 ca         1 0OM       0.390900
     17 H1          -2.6230    -0.3730     2.1640 ha         1 0OM       0.115000
     18 H2          -4.6010     1.1350     2.1490 ha         1 0OM       0.115000
     19 H3          -5.5850     1.8880    -0.0150 ha         1 0OM       0.114000
     20 H4          -4.5830     1.1280    -2.1680 ha         1 0OM       0.115000
     21 H5          -2.6050    -0.3800    -2.1620 ha         1 0OM       0.115000
     22 H6          -1.3020    -2.0520     0.8980 h1         1 0OM       0.057700
     23 H7          -1.2960    -2.0570    -0.8790 h1         1 0OM       0.057700
     24 H8           3.8280    -1.8450     0.0270 ha         1 0OM       0.141000
     25 H9           5.7080    -0.1830     0.0290 ha         1 0OM       0.130000
     26 H10          5.1810     2.2620     0.0210 h4         1 0OM       0.021100
     27 H11          1.0980     1.5400     0.0090 h4         1 0OM       0.039100
@<TRIPOS>BOND
     1     1     2 ar  
     2     1     6 ar  
     3     1    17 1   
     4     2     3 ar  
     5     2    18 1   
     6     3     4 ar  
     7     3    19 1   
     8     4     5 ar  
     9     4    20 1   
    10     5     6 ar  
    11     5    21 1   
    12     6     7 1   
    13     7     8 1   
    14     7    22 1   
    15     7    23 1   
    16     8     9 1   
    17     9    10 2   
    18     9    11 1   
    19    11    12 ar  
    20    11    16 ar  
    21    12    13 ar  
    22    12    24 1   
    23    13    14 ar  
    24    13    25 1   
    25    14    15 ar  
    26    14    26 1   
    27    15    16 ar  
    28    16    27 1   
@<TRIPOS>SUBSTRUCTURE
     1 0OM         1 TEMP              0 ****  ****    0 ROOT
