@<TRIPOS>MOLECULE
0ON
   25    26     1     0     0
SMALL
No Charge or Current Charge


@<TRIPOS>ATOM
      1 CAG         -2.6210    -1.1040     0.2810 ca         1 0ON      -0.148000
      2 CAC         -4.0260    -1.0960     0.3180 ca         1 0ON      -0.083500
      3 CAB         -4.7310     0.1030     0.1280 ca         1 0ON      -0.134000
      4 CAD         -4.0290     1.2970    -0.0990 ca         1 0ON      -0.083500
      5 CAH         -2.6240     1.2900    -0.1350 ca         1 0ON      -0.148000
      6 CAN         -1.9050     0.0930     0.0510 ca         1 0ON      -0.022000
      7 NAL         -0.4840     0.1690     0.0010 ns         1 0ON      -0.141000
      8 CAM          0.5140    -0.7990     0.0710 c          1 0ON       0.626700
      9 OAA          0.2840    -1.9970     0.1840 o          1 0ON      -0.576100
     10 CAO          1.9340    -0.2960    -0.0050 ca         1 0ON      -0.211600
     11 CAI          3.0170    -1.2000     0.0540 ca         1 0ON      -0.020000
     12 CAE          4.3220    -0.6910    -0.0210 ca         1 0ON      -0.171000
     13 CAF          4.5120     0.6930    -0.1510 ca         1 0ON       0.355900
     14 NAK          3.4830     1.5680    -0.2080 nb         1 0ON      -0.669000
     15 CAJ          2.2250     1.0780    -0.1370 ca         1 0ON       0.359900
     16 H1          -2.1120    -2.0490     0.4380 ha         1 0ON       0.127500
     17 H2          -4.5700    -2.0220     0.4960 ha         1 0ON       0.114000
     18 H3          -5.8190     0.1070     0.1570 ha         1 0ON       0.116000
     19 H4          -4.5730     2.2280    -0.2450 ha         1 0ON       0.114000
     20 H5          -2.0940     2.2230    -0.3120 ha         1 0ON       0.127500
     21 H6          -0.1380     1.1130    -0.1040 hn         1 0ON       0.153000
     22 H7           2.8550    -2.2720     0.1550 ha         1 0ON       0.142000
     23 H8           5.1810    -1.3550     0.0210 ha         1 0ON       0.131000
     24 H9           5.5150     1.1140    -0.2110 h4         1 0ON       0.024100
     25 H10          1.4360     1.8270    -0.1880 h4         1 0ON       0.019100
@<TRIPOS>BOND
     1     1     2 ar  
     2     1     6 ar  
     3     1    16 1   
     4     2     3 ar  
     5     2    17 1   
     6     3     4 ar  
     7     3    18 1   
     8     4     5 ar  
     9     4    19 1   
    10     5     6 ar  
    11     5    20 1   
    12     6     7 1   
    13     7     8 1   
    14     7    21 1   
    15     8     9 2   
    16     8    10 1   
    17    10    11 ar  
    18    10    15 ar  
    19    11    12 ar  
    20    11    22 1   
    21    12    13 ar  
    22    12    23 1   
    23    13    14 ar  
    24    13    24 1   
    25    14    15 ar  
    26    15    25 1   
@<TRIPOS>SUBSTRUCTURE
     1 0ON         1 TEMP              0 ****  ****    0 ROOT
