@<TRIPOS>MOLECULE
0ON
   25    26     1     0     0
SMALL
abcg2


@<TRIPOS>ATOM
      1 CAG         -2.5420    -1.0410     0.4640 ca         1 0ON      -0.148000
      2 CAC         -3.9310    -1.0460     0.4820 ca         1 0ON      -0.083500
      3 CAB         -4.6630     0.0560     0.0690 ca         1 0ON      -0.134000
      4 CAD         -3.9870     1.1870    -0.3680 ca         1 0ON      -0.083500
      5 CAH         -2.6030     1.2080    -0.3930 ca         1 0ON      -0.148000
      6 CAN         -1.8650     0.0970     0.0210 ca         1 0ON      -0.022000
      7 NAL         -0.4710     0.2210    -0.0320 ns         1 0ON      -0.141000
      8 CAM          0.4790    -0.7160     0.2040 c          1 0ON       0.626700
      9 OAA          0.2450    -1.8810     0.4740 o          1 0ON      -0.576100
     10 CAO          1.8860    -0.2280     0.0970 ca         1 0ON      -0.211600
     11 CAI          2.8830    -1.1330    -0.2560 ca         1 0ON      -0.020000
     12 CAE          4.1910    -0.6910    -0.3360 ca         1 0ON      -0.171000
     13 CAF          4.4590     0.6380    -0.0390 ca         1 0ON       0.355900
     14 NAK          3.5230     1.5060     0.3240 nb         1 0ON      -0.669000
     15 CAJ          2.2690     1.0790     0.3860 ca         1 0ON       0.359900
     16 H1          -2.0070    -1.9150     0.7940 ha         1 0ON       0.127500
     17 H2          -4.4410    -1.9360     0.8280 ha         1 0ON       0.114000
     18 H3          -5.7450     0.0360     0.0880 ha         1 0ON       0.116000
     19 H4          -4.5350     2.0610    -0.6950 ha         1 0ON       0.114000
     20 H5          -2.0880     2.0970    -0.7370 ha         1 0ON       0.127500
     21 H6          -0.1490     1.1180    -0.3620 hn         1 0ON       0.153000
     22 H7           2.6380    -2.1640    -0.4730 ha         1 0ON       0.142000
     23 H8           4.9920    -1.3590    -0.6190 ha         1 0ON       0.131000
     24 H9           5.4750     1.0140    -0.0900 h4         1 0ON       0.024100
     25 H10          1.5400     1.8150     0.7100 h4         1 0ON       0.019100
@<TRIPOS>BOND
     1     1     2 ar  
     2     1     6 ar  
     3     1    16 1   
     4     2     3 ar  
     5     2    17 1   
     6     3     4 ar  
     7     3    18 1   
     8     4     5 ar  
     9     4    19 1   
    10     5     6 ar  
    11     5    20 1   
    12     6     7 1   
    13     7     8 1   
    14     7    21 1   
    15     8     9 2   
    16     8    10 1   
    17    10    11 ar  
    18    10    15 ar  
    19    11    12 ar  
    20    11    22 1   
    21    12    13 ar  
    22    12    23 1   
    23    13    14 ar  
    24    13    24 1   
    25    14    15 ar  
    26    15    25 1   
@<TRIPOS>SUBSTRUCTURE
     1 0ON         1 TEMP              0 ****  ****    0 ROOT
