@<TRIPOS>MOLECULE
0OO
   27    28     1     0     0
SMALL
abcg2


@<TRIPOS>ATOM
      1 CAG          2.0960    -0.3150     1.1630 ca         1 0OO      -0.123500
      2 CAC          3.2010     0.4940     1.3900 ca         1 0OO      -0.099000
      3 CAB          3.9810     0.9360     0.3280 ca         1 0OO      -0.117000
      4 CAD          3.6510     0.5660    -0.9680 ca         1 0OO      -0.099000
      5 CAH          2.5430    -0.2360    -1.2090 ca         1 0OO      -0.123500
      6 CAN          1.7770    -0.6750    -0.1410 ca         1 0OO       0.103100
      7 OAL          0.7250    -1.5180    -0.3930 os         1 0OO      -0.257200
      8 CAO         -0.5480    -1.1060    -0.1320 ca         1 0OO       0.129100
      9 CAJ         -0.9060     0.2320    -0.0130 ca         1 0OO      -0.155000
     10 CAI         -1.5110    -2.1040    -0.0240 ca         1 0OO      -0.129000
     11 CAE         -2.8320    -1.7510     0.2020 ca         1 0OO      -0.087000
     12 CAF         -3.1970    -0.4170     0.3280 ca         1 0OO      -0.117000
     13 CAM         -2.2320     0.5800     0.2240 ca         1 0OO      -0.058300
     14 CAK         -2.6240     2.0280     0.3060 c3         1 0OO       0.205900
     15 OAA         -3.0190     2.4490    -0.9850 oh         1 0OO      -0.651000
     16 H1           1.4940    -0.6670     1.9910 ha         1 0OO       0.128500
     17 H2           3.4560     0.7720     2.4040 ha         1 0OO       0.116000
     18 H3           4.8440     1.5620     0.5120 ha         1 0OO       0.116000
     19 H4           4.2550     0.9040    -1.8000 ha         1 0OO       0.116000
     20 H5           2.2780    -0.5250    -2.2190 ha         1 0OO       0.128500
     21 H6          -0.1600     1.0120    -0.0990 ha         1 0OO       0.126000
     22 H7          -1.2240    -3.1430    -0.1170 ha         1 0OO       0.128000
     23 H8          -3.5810    -2.5270     0.2880 ha         1 0OO       0.116000
     24 H9          -4.2300    -0.1530     0.5130 ha         1 0OO       0.116000
     25 H10         -3.4380     2.1430     1.0310 h1         1 0OO       0.024200
     26 H11         -1.7780     2.6170     0.6790 h1         1 0OO       0.024200
     27 H12         -3.3060     3.3650    -0.9170 ho         1 0OO       0.440000
@<TRIPOS>BOND
     1     1     2 ar  
     2     1     6 ar  
     3     1    16 1   
     4     2     3 ar  
     5     2    17 1   
     6     3     4 ar  
     7     3    18 1   
     8     4     5 ar  
     9     4    19 1   
    10     5     6 ar  
    11     5    20 1   
    12     6     7 1   
    13     7     8 1   
    14     8     9 ar  
    15     8    10 ar  
    16     9    13 ar  
    17     9    21 1   
    18    10    11 ar  
    19    10    22 1   
    20    11    12 ar  
    21    11    23 1   
    22    12    13 ar  
    23    12    24 1   
    24    13    14 1   
    25    14    15 1   
    26    14    25 1   
    27    14    26 1   
    28    15    27 1   
@<TRIPOS>SUBSTRUCTURE
     1 0OO         1 TEMP              0 ****  ****    0 ROOT
