@<TRIPOS>MOLECULE
0OO
   27    28     1     0     0
SMALL
No Charge or Current Charge


@<TRIPOS>ATOM
      1 CAG          1.9290    -0.1300     0.9670 ca         1 0OO      -0.123500
      2 CAC          3.0770     0.5850     1.3530 ca         1 0OO      -0.099000
      3 CAB          4.1070     0.8150     0.4250 ca         1 0OO      -0.117000
      4 CAD          3.9940     0.3260    -0.8890 ca         1 0OO      -0.099000
      5 CAH          2.8460    -0.3890    -1.2750 ca         1 0OO      -0.123500
      6 CAN          1.8090    -0.6090    -0.3540 ca         1 0OO       0.103100
      7 OAL          0.7020    -1.3230    -0.7540 os         1 0OO      -0.257200
      8 CAO         -0.5750    -1.0240    -0.3330 ca         1 0OO       0.129100
      9 CAJ         -1.0000     0.3110    -0.1920 ca         1 0OO      -0.155000
     10 CAI         -1.4690    -2.0760    -0.0770 ca         1 0OO      -0.129000
     11 CAE         -2.7820    -1.7970     0.3400 ca         1 0OO      -0.087000
     12 CAF         -3.2010    -0.4640     0.4940 ca         1 0OO      -0.117000
     13 CAM         -2.3150     0.5980     0.2280 ca         1 0OO      -0.058300
     14 CAK         -2.7720     2.0430     0.3910 c3         1 0OO       0.205900
     15 OAA         -3.3080     2.5410    -0.8410 oh         1 0OO      -0.651000
     16 H1           1.1400    -0.3140     1.6920 ha         1 0OO       0.128500
     17 H2           3.1690     0.9580     2.3710 ha         1 0OO       0.116000
     18 H3           4.9960     1.3670     0.7240 ha         1 0OO       0.116000
     19 H4           4.7940     0.5000    -1.6050 ha         1 0OO       0.116000
     20 H5           2.7580    -0.7690    -2.2900 ha         1 0OO       0.128500
     21 H6          -0.3150     1.1260    -0.4120 ha         1 0OO       0.126000
     22 H7          -1.1430    -3.1060    -0.1990 ha         1 0OO       0.128000
     23 H8          -3.4730    -2.6130     0.5430 ha         1 0OO       0.116000
     24 H9          -4.2190    -0.2560     0.8160 ha         1 0OO       0.116000
     25 H10         -3.5310     2.0950     1.1840 h1         1 0OO       0.024200
     26 H11         -1.9210     2.6580     0.7110 h1         1 0OO       0.024200
     27 H12         -3.5830     3.4690    -0.6730 ho         1 0OO       0.440000
@<TRIPOS>BOND
     1     1     2 ar  
     2     1     6 ar  
     3     1    16 1   
     4     2     3 ar  
     5     2    17 1   
     6     3     4 ar  
     7     3    18 1   
     8     4     5 ar  
     9     4    19 1   
    10     5     6 ar  
    11     5    20 1   
    12     6     7 1   
    13     7     8 1   
    14     8     9 ar  
    15     8    10 ar  
    16     9    13 ar  
    17     9    21 1   
    18    10    11 ar  
    19    10    22 1   
    20    11    12 ar  
    21    11    23 1   
    22    12    13 ar  
    23    12    24 1   
    24    13    14 1   
    25    14    15 1   
    26    14    25 1   
    27    14    26 1   
    28    15    27 1   
@<TRIPOS>SUBSTRUCTURE
     1 0OO         1 TEMP              0 ****  ****    0 ROOT
