@<TRIPOS>MOLECULE
0OP
   30    31     1     0     0
SMALL
bcc


@<TRIPOS>ATOM
      1 CAF         -3.1130    -0.0530    -1.1060 ca         1 0OP      -0.102500
      2 CAC         -4.3240     0.6030    -1.2700 ca         1 0OP      -0.133500
      3 CAB         -5.0440     1.0250    -0.1580 ca         1 0OP      -0.117000
      4 CAD         -4.5470     0.7890     1.1160 ca         1 0OP      -0.133500
      5 CAG         -3.3320     0.1350     1.2760 ca         1 0OP      -0.102500
      6 CAN         -2.6070    -0.2940     0.1700 ca         1 0OP      -0.095300
      7 CAL         -1.2900    -0.9890     0.3380 c3         1 0OP       0.188700
      8 OAM         -0.2710    -0.0590    -0.0020 os         1 0OP      -0.319900
      9 CAP          1.0140    -0.4700     0.0280 ca         1 0OP       0.138100
     10 CAJ          1.9660     0.4700    -0.3640 ca         1 0OP      -0.141000
     11 CAI          1.4240    -1.7450     0.4150 ca         1 0OP      -0.211000
     12 CAE          2.7790    -2.0550     0.4020 ca         1 0OP      -0.095000
     13 CAH          3.7240    -1.1200     0.0120 ca         1 0OP      -0.147000
     14 CAO          3.3160     0.1530    -0.3790 ca         1 0OP      -0.053300
     15 CAK          4.3220     1.1990    -0.7690 c3         1 0OP       0.183700
     16 OAA          4.5360     2.0420     0.3460 oh         1 0OP      -0.589800
     17 H1          -2.5600    -0.3860    -1.9760 ha         1 0OP       0.132500
     18 H2          -4.7100     0.7810    -2.2650 ha         1 0OP       0.132000
     19 H3          -5.9900     1.5350    -0.2870 ha         1 0OP       0.131000
     20 H4          -5.1040     1.1120     1.9860 ha         1 0OP       0.132000
     21 H5          -2.9470    -0.0470     2.2730 ha         1 0OP       0.132500
     22 H6          -1.1680    -1.3340     1.3700 h1         1 0OP       0.040700
     23 H7          -1.2330    -1.8660    -0.3160 h1         1 0OP       0.040700
     24 H8           1.6350     1.4560    -0.6710 ha         1 0OP       0.147000
     25 H9           0.7140    -2.5000     0.7220 ha         1 0OP       0.133000
     26 H10          3.0920    -3.0460     0.7060 ha         1 0OP       0.129000
     27 H11          4.7760    -1.3780     0.0090 ha         1 0OP       0.132000
     28 H12          5.2510     0.7100    -1.0870 h1         1 0OP       0.024200
     29 H13          3.9470     1.7640    -1.6300 h1         1 0OP       0.024200
     30 H14          5.1030     2.7660     0.0630 ho         1 0OP       0.401000
@<TRIPOS>BOND
     1     1     2 ar  
     2     1     6 ar  
     3     1    17 1   
     4     2     3 ar  
     5     2    18 1   
     6     3     4 ar  
     7     3    19 1   
     8     4     5 ar  
     9     4    20 1   
    10     5     6 ar  
    11     5    21 1   
    12     6     7 1   
    13     7     8 1   
    14     7    22 1   
    15     7    23 1   
    16     8     9 1   
    17     9    10 ar  
    18     9    11 ar  
    19    10    14 ar  
    20    10    24 1   
    21    11    12 ar  
    22    11    25 1   
    23    12    13 ar  
    24    12    26 1   
    25    13    14 ar  
    26    13    27 1   
    27    14    15 1   
    28    15    16 1   
    29    15    28 1   
    30    15    29 1   
    31    16    30 1   
@<TRIPOS>SUBSTRUCTURE
     1 0OP         1 TEMP              0 ****  ****    0 ROOT
