@<TRIPOS>MOLECULE
0OP
   30    31     1     0     0
SMALL
No Charge or Current Charge


@<TRIPOS>ATOM
      1 CAF         -3.3550    -0.2870    -1.1220 ca         1 0OP      -0.084500
      2 CAC         -4.5860     0.3820    -1.2410 ca         1 0OP      -0.115500
      3 CAB         -5.1460     1.0290    -0.1260 ca         1 0OP      -0.099000
      4 CAD         -4.4740     1.0080     1.1070 ca         1 0OP      -0.115500
      5 CAG         -3.2430     0.3390     1.2270 ca         1 0OP      -0.084500
      6 CAN         -2.6770    -0.3130     0.1130 ca         1 0OP      -0.095300
      7 CAL         -1.3440    -1.0390     0.2430 c3         1 0OP       0.211900
      8 OAM         -0.2880    -0.1090    -0.0530 os         1 0OP      -0.343100
      9 CAP          1.0420    -0.4730    -0.0190 ca         1 0OP       0.138100
     10 CAJ          1.9990     0.5090    -0.3240 ca         1 0OP      -0.123000
     11 CAI          1.4650    -1.7810     0.3070 ca         1 0OP      -0.193000
     12 CAE          2.8360    -2.0900     0.3260 ca         1 0OP      -0.077000
     13 CAH          3.7860    -1.1020     0.0200 ca         1 0OP      -0.129000
     14 CAO          3.3750     0.2040    -0.3070 ca         1 0OP      -0.053300
     15 CAK          4.4050     1.2770    -0.6440 c3         1 0OP       0.206900
     16 OAA          4.7550     2.0220     0.5280 oh         1 0OP      -0.652000
     17 H1          -2.9270    -0.7840    -1.9900 ha         1 0OP       0.114500
     18 H2          -5.1050     0.3990    -2.1970 ha         1 0OP       0.114000
     19 H3          -6.0990     1.5470    -0.2190 ha         1 0OP       0.113000
     20 H4          -4.9060     1.5090     1.9700 ha         1 0OP       0.114000
     21 H5          -2.7270     0.3290     2.1850 ha         1 0OP       0.114500
     22 H6          -1.2400    -1.4310     1.2630 h1         1 0OP       0.040700
     23 H7          -1.3200    -1.8870    -0.4540 h1         1 0OP       0.040700
     24 H8           1.6700     1.5140    -0.5720 ha         1 0OP       0.129000
     25 H9           0.7510    -2.5630     0.5480 ha         1 0OP       0.115000
     26 H10          3.1620    -3.0970     0.5780 ha         1 0OP       0.111000
     27 H11          4.8450    -1.3510     0.0380 ha         1 0OP       0.114000
     28 H12          5.2970     0.8010    -1.0730 h1         1 0OP       0.024200
     29 H13          3.9910     1.9460    -1.4110 h1         1 0OP       0.024200
     30 H14          5.4180     2.6910     0.2490 ho         1 0OP       0.440000
@<TRIPOS>BOND
     1     1     2 ar  
     2     1     6 ar  
     3     1    17 1   
     4     2     3 ar  
     5     2    18 1   
     6     3     4 ar  
     7     3    19 1   
     8     4     5 ar  
     9     4    20 1   
    10     5     6 ar  
    11     5    21 1   
    12     6     7 1   
    13     7     8 1   
    14     7    22 1   
    15     7    23 1   
    16     8     9 1   
    17     9    10 ar  
    18     9    11 ar  
    19    10    14 ar  
    20    10    24 1   
    21    11    12 ar  
    22    11    25 1   
    23    12    13 ar  
    24    12    26 1   
    25    13    14 ar  
    26    13    27 1   
    27    14    15 1   
    28    15    16 1   
    29    15    28 1   
    30    15    29 1   
    31    16    30 1   
@<TRIPOS>SUBSTRUCTURE
     1 0OP         1 TEMP              0 ****  ****    0 ROOT
