@<TRIPOS>MOLECULE
0OQ
   43    46     1     0     0
SMALL
No Charge or Current Charge


@<TRIPOS>ATOM
      1 OAB          2.0130     3.0720    -1.3110 o          1 0OQ      -0.578000
      2 CAU          2.7210     2.3760    -0.5950 c          1 0OQ       0.547200
      3 CAL          3.5230     2.9550     0.4870 cc         1 0OQ      -0.323200
      4 CAF          4.3460     2.2220     1.3090 cd         1 0OQ      -0.073000
      5 CAG          4.4120     0.8070     1.0940 cd         1 0OQ      -0.292000
      6 CAT          3.6620     0.2200     0.0920 cc         1 0OQ       0.078400
      7 NAY          2.8280     0.9780    -0.7540 n          1 0OQ      -0.265000
      8 CAP          2.0880     0.3700    -1.9030 c6         1 0OQ       0.087000
      9 CAV          2.1300    -1.1800    -1.9790 c6         1 0OQ      -0.101700
     10 CAN          1.0290    -1.8270    -1.0910 c6         1 0OQ       0.101000
     11 CAM          3.5240    -1.6800    -1.5610 c6         1 0OQ      -0.072400
     12 CAW          3.7310    -1.2900    -0.0830 c6         1 0OQ      -0.057500
     13 CAO          2.6450    -1.9690     0.7950 c6         1 0OQ       0.093000
     14 NAX          1.2630    -1.6050     0.3670 n          1 0OQ      -0.401800
     15 CAQ          0.4660    -0.7170     1.1320 c          1 0OQ       0.615700
     16 OAA          0.9290    -0.1350     2.1060 o          1 0OQ      -0.574100
     17 CAR         -1.0050    -0.5790     0.7970 ca         1 0OQ      -0.117600
     18 CAH         -1.7670    -1.6700     0.3210 ca         1 0OQ      -0.085500
     19 CAJ         -3.1360    -1.5200     0.0410 ca         1 0OQ      -0.065000
     20 CAS         -3.7780    -0.2790     0.2380 ca         1 0OQ      -0.185300
     21 CAZ         -5.2730    -0.1180    -0.0580 c3         1 0OQ       0.356300
     22 FAD         -5.6890    -0.9270    -1.0600 f          1 0OQ      -0.112000
     23 FAE         -6.0240    -0.4160     1.0260 f          1 0OQ      -0.112000
     24 FAC         -5.5930     1.1440    -0.4260 f          1 0OQ      -0.112000
     25 CAK         -3.0260     0.8010     0.7480 ca         1 0OQ      -0.065000
     26 CAI         -1.6580     0.6490     1.0290 ca         1 0OQ      -0.085500
     27 H1           3.4290     4.0290     0.5990 ha         1 0OQ       0.209000
     28 H2           4.9250     2.7000     2.0980 ha         1 0OQ       0.187000
     29 H3           5.0450     0.1960     1.7330 ha         1 0OQ       0.196000
     30 H4           1.0410     0.7070    -1.8870 h1         1 0OQ       0.070700
     31 H5           2.5330     0.7680    -2.8260 h1         1 0OQ       0.070700
     32 H6           1.9380    -1.4760    -3.0200 hc         1 0OQ       0.071700
     33 H7           0.0600    -1.4210    -1.4060 h1         1 0OQ       0.060700
     34 H8           1.0010    -2.9100    -1.2800 h1         1 0OQ       0.060700
     35 H9           3.5980    -2.7690    -1.6870 hc         1 0OQ       0.058200
     36 H10          4.3050    -1.2310    -2.1910 hc         1 0OQ       0.058200
     37 H11          4.7150    -1.6610     0.2340 hc         1 0OQ       0.078700
     38 H12          2.7560    -3.0600     0.7260 h1         1 0OQ       0.070700
     39 H13          2.8080    -1.7040     1.8490 h1         1 0OQ       0.070700
     40 H14         -1.3050    -2.6450     0.1830 ha         1 0OQ       0.134000
     41 H15         -3.6970    -2.3790    -0.3230 ha         1 0OQ       0.135500
     42 H16         -3.5000     1.7630     0.9330 ha         1 0OQ       0.135500
     43 H17         -1.0980     1.4970     1.4210 ha         1 0OQ       0.134000
@<TRIPOS>BOND
     1     1     2 2   
     2     2     3 1   
     3     2     7 1   
     4     3     4 2   
     5     3    27 1   
     6     4     5 1   
     7     4    28 1   
     8     5     6 2   
     9     5    29 1   
    10     6     7 1   
    11     6    12 1   
    12     7     8 1   
    13     8     9 1   
    14     8    30 1   
    15     8    31 1   
    16     9    10 1   
    17     9    11 1   
    18     9    32 1   
    19    10    14 1   
    20    10    33 1   
    21    10    34 1   
    22    11    12 1   
    23    11    35 1   
    24    11    36 1   
    25    12    13 1   
    26    12    37 1   
    27    13    14 1   
    28    13    38 1   
    29    13    39 1   
    30    14    15 1   
    31    15    16 2   
    32    15    17 1   
    33    17    18 ar  
    34    17    26 ar  
    35    18    19 ar  
    36    18    40 1   
    37    19    20 ar  
    38    19    41 1   
    39    20    21 1   
    40    20    25 ar  
    41    21    22 1   
    42    21    23 1   
    43    21    24 1   
    44    25    26 ar  
    45    25    42 1   
    46    26    43 1   
@<TRIPOS>SUBSTRUCTURE
     1 0OQ         1 TEMP              0 ****  ****    0 ROOT
