@<TRIPOS>MOLECULE
0OQ
   43    46     1     0     0
SMALL
abcg2


@<TRIPOS>ATOM
      1 OAB          1.4100     2.8330    -1.0550 o          1 0OQ      -0.578000
      2 CAU          2.2530     2.2600    -0.3650 c          1 0OQ       0.547200
      3 CAL          2.9740     2.8760     0.7080 cc         1 0OQ      -0.323200
      4 CAF          3.9230     2.1950     1.4020 cd         1 0OQ      -0.073000
      5 CAG          4.2010     0.8520     1.0910 cd         1 0OQ      -0.292000
      6 CAT          3.5040     0.2340     0.0950 cc         1 0OQ       0.078400
      7 NAY          2.5620     0.9190    -0.6170 n          1 0OQ      -0.265000
      8 CAP          1.8670     0.3410    -1.7810 c6         1 0OQ       0.087000
      9 CAV          2.0380    -1.1610    -1.9510 c6         1 0OQ      -0.101700
     10 CAN          1.0750    -1.9550    -1.0690 c6         1 0OQ       0.101000
     11 CAM          3.4760    -1.5510    -1.6510 c6         1 0OQ      -0.072400
     12 CAW          3.7120    -1.2270    -0.1830 c6         1 0OQ      -0.057500
     13 CAO          2.7420    -2.0440     0.6860 c6         1 0OQ       0.093000
     14 NAX          1.3690    -1.7320     0.3380 n          1 0OQ      -0.401800
     15 CAQ          0.6010    -1.0060     1.1780 c          1 0OQ       0.615700
     16 OAA          0.9850    -0.5970     2.2630 o          1 0OQ      -0.574100
     17 CAR         -0.8080    -0.7220     0.7550 ca         1 0OQ      -0.117600
     18 CAH         -1.7300    -1.7520     0.6000 ca         1 0OQ      -0.085500
     19 CAJ         -3.0530    -1.4660     0.3050 ca         1 0OQ      -0.065000
     20 CAS         -3.4570    -0.1470     0.1470 ca         1 0OQ      -0.185300
     21 CAZ         -4.8920     0.1720    -0.1360 c3         1 0OQ       0.356300
     22 FAD         -5.5180    -0.8260    -0.7690 f          1 0OQ      -0.112000
     23 FAE         -5.5770     0.4010     0.9950 f          1 0OQ      -0.112000
     24 FAC         -5.0270     1.2660    -0.8940 f          1 0OQ      -0.112000
     25 CAK         -2.5390     0.8860     0.3020 ca         1 0OQ      -0.065000
     26 CAI         -1.2220     0.5980     0.6180 ca         1 0OQ      -0.085500
     27 H1           2.7410     3.9090     0.9280 ha         1 0OQ       0.209000
     28 H2           4.4670     2.6850     2.1990 ha         1 0OQ       0.187000
     29 H3           4.9390     0.2890     1.6440 ha         1 0OQ       0.196000
     30 H4           0.8100     0.5960    -1.7020 h1         1 0OQ       0.070700
     31 H5           2.2440     0.8500    -2.6710 h1         1 0OQ       0.070700
     32 H6           1.7870    -1.3890    -2.9900 hc         1 0OQ       0.071700
     33 H7           0.0500    -1.6700    -1.2930 h1         1 0OQ       0.060700
     34 H8           1.1700    -3.0220    -1.2870 h1         1 0OQ       0.060700
     35 H9           3.6360    -2.6160    -1.8290 hc         1 0OQ       0.058200
     36 H10          4.1750    -1.0080    -2.2910 hc         1 0OQ       0.058200
     37 H11          4.7290    -1.4870     0.1160 hc         1 0OQ       0.078700
     38 H12          2.9170    -3.1100     0.5080 h1         1 0OQ       0.070700
     39 H13          2.9060    -1.8520     1.7430 h1         1 0OQ       0.070700
     40 H14         -1.4190    -2.7830     0.7100 ha         1 0OQ       0.134000
     41 H15         -3.7530    -2.2830     0.1970 ha         1 0OQ       0.135500
     42 H16         -2.8360     1.9190     0.1820 ha         1 0OQ       0.135500
     43 H17         -0.5170     1.4090     0.7420 ha         1 0OQ       0.134000
@<TRIPOS>BOND
     1     1     2 2   
     2     2     3 1   
     3     2     7 1   
     4     3     4 2   
     5     3    27 1   
     6     4     5 1   
     7     4    28 1   
     8     5     6 2   
     9     5    29 1   
    10     6     7 1   
    11     6    12 1   
    12     7     8 1   
    13     8     9 1   
    14     8    30 1   
    15     8    31 1   
    16     9    10 1   
    17     9    11 1   
    18     9    32 1   
    19    10    14 1   
    20    10    33 1   
    21    10    34 1   
    22    11    12 1   
    23    11    35 1   
    24    11    36 1   
    25    12    13 1   
    26    12    37 1   
    27    13    14 1   
    28    13    38 1   
    29    13    39 1   
    30    14    15 1   
    31    15    16 2   
    32    15    17 1   
    33    17    18 ar  
    34    17    26 ar  
    35    18    19 ar  
    36    18    40 1   
    37    19    20 ar  
    38    19    41 1   
    39    20    21 1   
    40    20    25 ar  
    41    21    22 1   
    42    21    23 1   
    43    21    24 1   
    44    25    26 ar  
    45    25    42 1   
    46    26    43 1   
@<TRIPOS>SUBSTRUCTURE
     1 0OQ         1 TEMP              0 ****  ****    0 ROOT
