@<TRIPOS>MOLECULE
0OS
   76    79     1     0     0
SMALL
No Charge or Current Charge


@<TRIPOS>ATOM
      1 CBM          6.9200     2.5470     0.8130 ca         1 0OS       0.113100
      2 CAQ          5.7760     2.1180     0.1000 ca         1 0OS      -0.166000
      3 CBL          6.7630     3.2330     2.0420 ca         1 0OS       0.099100
      4 CAN          5.4650     3.4790     2.5430 ca         1 0OS      -0.171000
      5 CAM          4.3370     3.0480     1.8260 ca         1 0OS      -0.111000
      6 CBI          4.4860     2.3690     0.6040 ca         1 0OS      -0.065300
      7 CAV          3.2580     1.8980    -0.1630 c3         1 0OS      -0.030100
      8 CAY          2.8340     0.4690     0.2480 c3         1 0OS      -0.070400
      9 CBO          1.6050    -0.0640    -0.5210 c3         1 0OS       0.231600
     10 CBK          1.2800    -1.5160    -0.1570 ca         1 0OS      -0.091300
     11 CAP          1.3770    -2.5290    -1.1330 ca         1 0OS      -0.140000
     12 CAL          0.8840    -1.8630     1.1510 ca         1 0OS      -0.172000
     13 CAJ          0.5910    -3.1970     1.4780 ca         1 0OS      -0.081000
     14 CAK          0.6920    -4.2000     0.5000 ca         1 0OS      -0.208000
     15 CBJ          1.0860    -3.8660    -0.8140 ca         1 0OS       0.174100
     16 OBD          0.4890     0.7750    -0.1720 os         1 0OS      -0.440100
     17 C           -0.6470     0.7340    -0.9480 c          1 0OS       0.606100
     18 O           -0.7370     0.0650    -1.9720 o          1 0OS      -0.463000
     19 CA          -1.8100     1.6760    -0.4470 c6         1 0OS       0.153500
     20 CB          -1.2370     2.8470     0.4100 c6         1 0OS      -0.076400
     21 CAT         -2.3190     3.8930     0.7440 c6         1 0OS      -0.075400
     22 CAU         -3.4940     3.2040     1.4600 c6         1 0OS      -0.075400
     23 CAZ         -4.0340     2.0180     0.6300 c6         1 0OS       0.194800
     24 N           -2.9660     1.0290     0.2990 n3         1 0OS      -0.719500
     25 S1          -3.5370    -0.4450    -0.3590 sy         1 0OS       1.136600
     26 OAE         -3.9550    -0.1690    -1.7380 o          1 0OS      -0.538000
     27 OAF         -2.5280    -1.4550    -0.0270 o          1 0OS      -0.538000
     28 CBN         -4.9840    -0.8160     0.6440 ca         1 0OS      -0.248500
     29 CAR         -6.2850    -0.6620     0.1170 ca         1 0OS      -0.003500
     30 CBG         -7.4040    -0.9460     0.9200 ca         1 0OS       0.098500
     31 Cl2         -9.0250    -0.7520     0.2640 cl         1 0OS      -0.181500
     32 CAO         -7.2340    -1.3810     2.2450 ca         1 0OS      -0.055000
     33 CBH         -5.9400    -1.5330     2.7700 ca         1 0OS       0.098500
     34 Cl1         -5.7270    -2.0740     4.4310 cl         1 0OS      -0.181500
     35 CAS         -4.8150    -1.2530     1.9750 ca         1 0OS      -0.003500
     36 H2           5.8710     1.5880    -0.8430 ha         1 0OS       0.124000
     37 H5           3.3420     3.2400     2.2230 ha         1 0OS       0.112000
     38 H6           2.4240     2.5900     0.0080 hc         1 0OS       0.056700
     39 H7           3.4550     1.9200    -1.2420 hc         1 0OS       0.056700
     40 H8           3.6760    -0.2130     0.0770 hc         1 0OS       0.058700
     41 H9           2.6290     0.4510     1.3250 hc         1 0OS       0.058700
     42 H10          1.8220     0.0070    -1.5970 h1         1 0OS       0.075700
     43 H11          1.6780    -2.2820    -2.1470 ha         1 0OS       0.131000
     44 H12          0.7950    -1.0950     1.9160 ha         1 0OS       0.098000
     45 H13          0.2840    -3.4520     2.4890 ha         1 0OS       0.093000
     46 H14          0.4600    -5.2240     0.7760 ha         1 0OS       0.123000
     47 H16         -2.1990     2.1160    -1.3770 h1         1 0OS       0.066700
     48 H17         -0.8100     2.4530     1.3430 hc         1 0OS       0.070200
     49 H18         -0.4140     3.3380    -0.1290 hc         1 0OS       0.070200
     50 H19         -1.8990     4.6850     1.3800 hc         1 0OS       0.045700
     51 H20         -2.6710     4.3770    -0.1780 hc         1 0OS       0.045700
     52 H21         -3.1690     2.8410     2.4450 hc         1 0OS       0.053700
     53 H22         -4.3000     3.9270     1.6430 hc         1 0OS       0.053700
     54 H23         -4.8380     1.5650     1.2250 h1         1 0OS       0.051700
     55 H24         -4.4950     2.4020    -0.2920 h1         1 0OS       0.051700
     56 H27         -6.4370    -0.3240    -0.9060 ha         1 0OS       0.166500
     57 H28         -8.1010    -1.5980     2.8620 ha         1 0OS       0.142000
     58 H29         -3.8180    -1.3690     2.3970 ha         1 0OS       0.166500
     59 O1           1.2020    -4.8090    -1.8160 os         1 0OS      -0.292100
     60 C2           0.9290    -6.2140    -1.5910 c3         1 0OS       0.001600
     61 H26          1.5930    -6.6070    -0.8110 h1         1 0OS       0.017200
     62 H30         -0.1080    -6.3470    -1.2560 h1         1 0OS       0.017200
     63 C3           1.1280    -7.0900    -2.8640 c          1 0OS       0.729000
     64 O2           0.9180    -8.2920    -2.7600 o          1 0OS      -0.711500
     65 O3           1.4840    -6.5640    -3.9120 o          1 0OS      -0.711500
     66 O4           7.8980     3.6440     2.7230 os         1 0OS      -0.324100
     67 C4           7.8340     4.3430     3.9790 c3         1 0OS       0.148900
     68 H3           7.2900     5.2900     3.8710 h1         1 0OS       0.034367
     69 H4           7.3320     3.7320     4.7400 h1         1 0OS       0.034367
     70 H15          8.8450     4.5710     4.3380 h1         1 0OS       0.034367
     71 O5           8.2020     2.3150     0.3420 os         1 0OS      -0.328100
     72 C5           8.4590     1.6270    -0.8950 c3         1 0OS       0.143900
     73 H1           5.3100     4.0010     3.4830 ha         1 0OS       0.112000
     74 H25          8.0510     0.6080    -0.8670 h1         1 0OS       0.040700
     75 H31          8.0110     2.1640    -1.7410 h1         1 0OS       0.040700
     76 H32          9.5390     1.5550    -1.0730 h1         1 0OS       0.040700
@<TRIPOS>BOND
     1     1     2 ar  
     2     1     3 ar  
     3     1    71 1   
     4     2     6 ar  
     5     2    36 1   
     6     3     4 ar  
     7     3    66 1   
     8     4     5 ar  
     9     4    73 1   
    10     5     6 ar  
    11     5    37 1   
    12     6     7 1   
    13     7     8 1   
    14     7    38 1   
    15     7    39 1   
    16     8     9 1   
    17     8    40 1   
    18     8    41 1   
    19     9    10 1   
    20     9    16 1   
    21     9    42 1   
    22    10    11 ar  
    23    10    12 ar  
    24    11    15 ar  
    25    11    43 1   
    26    12    13 ar  
    27    12    44 1   
    28    13    14 ar  
    29    13    45 1   
    30    14    15 ar  
    31    14    46 1   
    32    15    59 1   
    33    16    17 1   
    34    17    18 2   
    35    17    19 1   
    36    19    20 1   
    37    19    24 1   
    38    19    47 1   
    39    20    21 1   
    40    20    48 1   
    41    20    49 1   
    42    21    22 1   
    43    21    50 1   
    44    21    51 1   
    45    22    23 1   
    46    22    52 1   
    47    22    53 1   
    48    23    24 1   
    49    23    54 1   
    50    23    55 1   
    51    24    25 1   
    52    25    26 2   
    53    25    27 2   
    54    25    28 1   
    55    28    29 ar  
    56    28    35 ar  
    57    29    30 ar  
    58    29    56 1   
    59    30    31 1   
    60    30    32 ar  
    61    32    33 ar  
    62    32    57 1   
    63    33    34 1   
    64    33    35 ar  
    65    35    58 1   
    66    59    60 1   
    67    60    61 1   
    68    60    62 1   
    69    60    63 1   
    70    63    64 1   
    71    63    65 1   
    72    66    67 1   
    73    67    68 1   
    74    67    69 1   
    75    67    70 1   
    76    71    72 1   
    77    72    74 1   
    78    72    75 1   
    79    72    76 1   
@<TRIPOS>SUBSTRUCTURE
     1 0OS         1 TEMP              0 ****  ****    0 ROOT
