@<TRIPOS>MOLECULE
0OS
   76    79     1     0     0
SMALL
abcg2


@<TRIPOS>ATOM
      1 CBM          5.9650     2.7120    -1.0910 ca         1 0OS       0.113100
      2 CAQ          4.7290     2.0890    -1.0880 ca         1 0OS      -0.166000
      3 CBL          6.2080     3.7840    -0.2070 ca         1 0OS       0.099100
      4 CAN          5.2000     4.1910     0.6490 ca         1 0OS      -0.171000
      5 CAM          3.9620     3.5470     0.6430 ca         1 0OS      -0.111000
      6 CBI          3.7110     2.4960    -0.2180 ca         1 0OS      -0.065300
      7 CAV          2.3970     1.7660    -0.2040 c3         1 0OS      -0.030100
      8 CAY          2.5280     0.3870     0.4460 c3         1 0OS      -0.070400
      9 CBO          1.2360    -0.4150     0.4340 c3         1 0OS       0.231600
     10 CBK          1.4330    -1.8010     0.9920 ca         1 0OS      -0.091300
     11 CAP          1.5770    -2.8630     0.1160 ca         1 0OS      -0.140000
     12 CAL          1.5350    -2.0190     2.3660 ca         1 0OS      -0.172000
     13 CAJ          1.7730    -3.3000     2.8320 ca         1 0OS      -0.081000
     14 CAK          1.9250    -4.3730     1.9600 ca         1 0OS      -0.208000
     15 CBJ          1.8310    -4.1540     0.5860 ca         1 0OS       0.174100
     16 OBD          0.2900     0.3230     1.2220 os         1 0OS      -0.440100
     17 C           -0.9880    -0.0020     1.1260 c          1 0OS       0.606100
     18 O           -1.4200    -0.8740     0.4180 o          1 0OS      -0.463000
     19 CA          -1.8150     0.7660     2.1460 c6         1 0OS       0.153500
     20 CB          -2.0090    -0.2060     3.3210 c6         1 0OS      -0.076400
     21 CAT         -3.0130     0.3020     4.3390 c6         1 0OS      -0.075400
     22 CAU         -4.3380     0.5440     3.6390 c6         1 0OS      -0.075400
     23 CAZ         -4.1600     1.5670     2.5350 c6         1 0OS       0.194800
     24 N           -3.1120     1.1550     1.5820 n3         1 0OS      -0.719500
     25 S1          -3.0500     2.1590     0.2570 sy         1 0OS       1.136600
     26 OAE         -3.3700     3.5370     0.5990 o          1 0OS      -0.538000
     27 OAF         -1.7980     1.9000    -0.4360 o          1 0OS      -0.538000
     28 CBN         -4.3950     1.5260    -0.7190 ca         1 0OS      -0.248500
     29 CAR         -5.3790     2.3990    -1.1500 ca         1 0OS      -0.003500
     30 CBG         -6.3860     1.8900    -1.9570 ca         1 0OS       0.098500
     31 CL2         -7.6330     2.9440    -2.5110 cl         1 0OS      -0.181500
     32 CAO         -6.4150     0.5560    -2.3270 ca         1 0OS      -0.055000
     33 CBH         -5.4070    -0.2830    -1.8710 ca         1 0OS       0.098500
     34 CL1         -5.4360    -1.9470    -2.3240 cl         1 0OS      -0.181500
     35 CAS         -4.3840     0.1830    -1.0650 ca         1 0OS      -0.003500
     36 H2           4.5360     1.2730    -1.7740 ha         1 0OS       0.124000
     37 H5           3.1920     3.8850     1.3250 ha         1 0OS       0.112000
     38 H6           1.6560     2.3620     0.3320 hc         1 0OS       0.056700
     39 H7           2.0230     1.6460    -1.2260 hc         1 0OS       0.056700
     40 H8           3.2770    -0.2000    -0.0920 hc         1 0OS       0.058700
     41 H9           2.8930     0.4880     1.4720 hc         1 0OS       0.058700
     42 H10          0.8670    -0.4860    -0.5940 h1         1 0OS       0.075700
     43 H11          1.4930    -2.7010    -0.9530 ha         1 0OS       0.131000
     44 H12          1.4330    -1.2020     3.0690 ha         1 0OS       0.098000
     45 H13          1.8470    -3.4770     3.8970 ha         1 0OS       0.093000
     46 H14          2.1110    -5.3580     2.3650 ha         1 0OS       0.123000
     47 H16         -1.2580     1.6400     2.5030 h1         1 0OS       0.066700
     48 H17         -2.3510    -1.1700     2.9360 hc         1 0OS       0.070200
     49 H18         -1.0320    -0.3670     3.7800 hc         1 0OS       0.070200
     50 H19         -3.1230    -0.4330     5.1380 hc         1 0OS       0.045700
     51 H20         -2.6560     1.2270     4.8000 hc         1 0OS       0.045700
     52 H21         -4.7220    -0.3920     3.2270 hc         1 0OS       0.053700
     53 H22         -5.0880     0.9280     4.3310 hc         1 0OS       0.053700
     54 H23         -5.0960     1.6800     1.9870 h1         1 0OS       0.051700
     55 H24         -3.9160     2.5370     2.9800 h1         1 0OS       0.051700
     56 H27         -5.3740     3.4420    -0.8660 ha         1 0OS       0.166500
     57 H28         -7.2090     0.1740    -2.9540 ha         1 0OS       0.142000
     58 H29         -3.6130    -0.4840    -0.7030 ha         1 0OS       0.166500
     59 O1           1.9580    -5.1080    -0.3500 os         1 0OS      -0.292100
     60 C2           2.2840    -6.4230     0.0560 c3         1 0OS       0.001600
     61 H26          3.2130    -6.4260     0.6400 h1         1 0OS       0.017200
     62 H30          1.5000    -6.8340     0.7050 h1         1 0OS       0.017200
     63 C3           2.4580    -7.3410    -1.1640 c          1 0OS       0.729000
     64 O2           2.7470    -8.5160    -0.8640 o          1 0OS      -0.711500
     65 O3           2.3060    -6.8560    -2.2940 o          1 0OS      -0.711500
     66 O4           7.4370     4.3340    -0.2790 os         1 0OS      -0.324100
     67 C4           7.7250     5.4230     0.5710 c3         1 0OS       0.148900
     68 H3           7.0650     6.2750     0.3830 h1         1 0OS       0.034367
     69 H4           7.6510     5.1500     1.6280 h1         1 0OS       0.034367
     70 H15          8.7490     5.7200     0.3590 h1         1 0OS       0.034367
     71 O5           6.9950     2.3760    -1.8920 os         1 0OS      -0.328100
     72 C5           6.8270     1.2830    -2.7700 c3         1 0OS       0.143900
     73 H1           5.3550     5.0130     1.3360 ha         1 0OS       0.112000
     74 H25          6.6040     0.3570    -2.2320 h1         1 0OS       0.040700
     75 H31          6.0350     1.4620    -3.5020 h1         1 0OS       0.040700
     76 H32          7.7700     1.1630    -3.2980 h1         1 0OS       0.040700
@<TRIPOS>BOND
     1     1     2 ar  
     2     1     3 ar  
     3     1    71 1   
     4     2     6 ar  
     5     2    36 1   
     6     3     4 ar  
     7     3    66 1   
     8     4     5 ar  
     9     4    73 1   
    10     5     6 ar  
    11     5    37 1   
    12     6     7 1   
    13     7     8 1   
    14     7    38 1   
    15     7    39 1   
    16     8     9 1   
    17     8    40 1   
    18     8    41 1   
    19     9    10 1   
    20     9    16 1   
    21     9    42 1   
    22    10    11 ar  
    23    10    12 ar  
    24    11    15 ar  
    25    11    43 1   
    26    12    13 ar  
    27    12    44 1   
    28    13    14 ar  
    29    13    45 1   
    30    14    15 ar  
    31    14    46 1   
    32    15    59 1   
    33    16    17 1   
    34    17    18 2   
    35    17    19 1   
    36    19    20 1   
    37    19    24 1   
    38    19    47 1   
    39    20    21 1   
    40    20    48 1   
    41    20    49 1   
    42    21    22 1   
    43    21    50 1   
    44    21    51 1   
    45    22    23 1   
    46    22    52 1   
    47    22    53 1   
    48    23    24 1   
    49    23    54 1   
    50    23    55 1   
    51    24    25 1   
    52    25    26 2   
    53    25    27 2   
    54    25    28 1   
    55    28    29 ar  
    56    28    35 ar  
    57    29    30 ar  
    58    29    56 1   
    59    30    31 1   
    60    30    32 ar  
    61    32    33 ar  
    62    32    57 1   
    63    33    34 1   
    64    33    35 ar  
    65    35    58 1   
    66    59    60 1   
    67    60    61 1   
    68    60    62 1   
    69    60    63 1   
    70    63    64 1   
    71    63    65 1   
    72    66    67 1   
    73    67    68 1   
    74    67    69 1   
    75    67    70 1   
    76    71    72 1   
    77    72    74 1   
    78    72    75 1   
    79    72    76 1   
@<TRIPOS>SUBSTRUCTURE
     1 0OS         1 TEMP              0 ****  ****    0 ROOT
