@<TRIPOS>MOLECULE
0OT
   51    53     1     0     0
SMALL
No Charge or Current Charge


@<TRIPOS>ATOM
      1 CAA          2.7970     4.2080     2.0480 c3         1 0OT      -0.093100
      2 CAL          3.4610     2.8280     1.9290 c3         1 0OT       0.165600
      3 OAT          3.0530     2.2570     0.6770 os         1 0OT      -0.349100
      4 CAY          3.5200     1.0100     0.3300 ca         1 0OT       0.172100
      5 CAV          4.7740     0.8870    -0.3080 ca         1 0OT      -0.052900
      6 Br2          5.8290     2.4340    -0.7290 br         1 0OT      -0.070100
      7 CAI          5.2630    -0.3820    -0.6590 ca         1 0OT      -0.043000
      8 CAU          4.5020    -1.5270    -0.3760 ca         1 0OT      -0.032900
      9 Br1          5.1700    -3.2550    -0.8520 br         1 0OT      -0.083100
     10 CAJ          3.2500    -1.4100     0.2490 ca         1 0OT      -0.063000
     11 CAX          2.7440    -0.1410     0.6020 ca         1 0OT      -0.107300
     12 CAP          1.3780    -0.0470     1.2730 c3         1 0OT       0.213100
     13 NAQ          0.3020    -0.2110     0.2790 n7         1 0OT      -0.846400
     14 CAN         -1.0650    -0.1630     0.8240 c3         1 0OT       0.163800
     15 CAM         -2.0930    -0.3120    -0.3120 c3         1 0OT      -0.097400
     16 CAO         -3.5430    -0.2530     0.2010 c3         1 0OT       0.224800
     17 NAR         -4.4940    -0.4000    -0.9110 nu         1 0OT      -0.856200
     18 CAW         -5.8400    -0.4030    -0.8540 cc         1 0OT       0.431000
     19 CAK         -6.6570    -0.5380    -1.9290 cd         1 0OT      -0.498200
     20 CAZ         -8.1090    -0.5440    -1.8790 c          1 0OT       0.610900
     21 OAB         -8.7840    -0.6700    -2.8920 o          1 0OT      -0.595100
     22 CBB         -8.7020    -0.3880    -0.5410 ca         1 0OT      -0.193600
     23 CAH        -10.0970    -0.3740    -0.3320 ca         1 0OT      -0.025000
     24 CAF        -10.6040    -0.2210     0.9690 ca         1 0OT      -0.155000
     25 CAE         -9.7230    -0.0850     2.0540 ca         1 0OT      -0.058000
     26 CAG         -8.3350    -0.1010     1.8310 ca         1 0OT      -0.180000
     27 CBA         -7.8220    -0.2530     0.5310 ca         1 0OT       0.320000
     28 NAS         -6.4420    -0.2620     0.3650 na         1 0OT      -0.824000
     29 H1           1.7040     4.1140     2.0210 hc         1 0OT       0.047700
     30 H2           3.0780     4.6830     2.9950 hc         1 0OT       0.047700
     31 H3           3.1150     4.8610     1.2270 hc         1 0OT       0.047700
     32 H4           4.5520     2.9390     1.9730 h1         1 0OT       0.032200
     33 H5           3.1440     2.1930     2.7660 h1         1 0OT       0.032200
     34 H6           6.2290    -0.4780    -1.1500 ha         1 0OT       0.146000
     35 H7           2.6690    -2.3050     0.4580 ha         1 0OT       0.130000
     36 H8           1.3100    -0.8320     2.0390 h1         1 0OT       0.038200
     37 H9           1.2740     0.9140     1.7920 h1         1 0OT       0.038200
     38 H10          0.4350    -1.1170    -0.1840 hn         1 0OT       0.411000
     39 H12         -1.2150    -0.9700     1.5540 h1         1 0OT       0.029700
     40 H13         -1.2360     0.7930     1.3380 h1         1 0OT       0.029700
     41 H14         -1.9360     0.4880    -1.0460 hc         1 0OT       0.061700
     42 H15         -1.9300    -1.2670    -0.8260 hc         1 0OT       0.061700
     43 H16         -3.6990    -1.0570     0.9330 h1         1 0OT       0.037700
     44 H17         -3.7070     0.7080     0.7080 h1         1 0OT       0.037700
     45 H18         -4.1130    -0.5050    -1.8500 hn         1 0OT       0.511000
     46 H19         -6.2520    -0.6550    -2.9240 ha         1 0OT       0.202000
     47 H21        -10.7830    -0.4790    -1.1700 ha         1 0OT       0.140000
     48 H22        -11.6790    -0.2100     1.1360 ha         1 0OT       0.119000
     49 H23        -10.1130     0.0330     3.0630 ha         1 0OT       0.113000
     50 H24         -7.6580     0.0050     2.6750 ha         1 0OT       0.109000
     51 H11         -5.8510    -0.1600     1.1770 hn         1 0OT       0.498000
@<TRIPOS>BOND
     1     1     2 1   
     2     1    29 1   
     3     1    30 1   
     4     1    31 1   
     5     2     3 1   
     6     2    32 1   
     7     2    33 1   
     8     3     4 1   
     9     4     5 ar  
    10     4    11 ar  
    11     5     6 1   
    12     5     7 ar  
    13     7     8 ar  
    14     7    34 1   
    15     8     9 1   
    16     8    10 ar  
    17    10    11 ar  
    18    10    35 1   
    19    11    12 1   
    20    12    13 1   
    21    12    36 1   
    22    12    37 1   
    23    13    14 1   
    24    13    38 1   
    25    14    15 1   
    26    14    39 1   
    27    14    40 1   
    28    15    16 1   
    29    15    41 1   
    30    15    42 1   
    31    16    17 1   
    32    16    43 1   
    33    16    44 1   
    34    17    18 1   
    35    17    45 1   
    36    18    19 2   
    37    18    28 1   
    38    19    20 1   
    39    19    46 1   
    40    20    21 2   
    41    20    22 1   
    42    22    23 ar  
    43    22    27 ar  
    44    23    24 ar  
    45    23    47 1   
    46    24    25 ar  
    47    24    48 1   
    48    25    26 ar  
    49    25    49 1   
    50    26    27 ar  
    51    26    50 1   
    52    27    28 1   
    53    28    51 1   
@<TRIPOS>SUBSTRUCTURE
     1 0OT         1 TEMP              0 ****  ****    0 ROOT
