@<TRIPOS>MOLECULE
0OT
   51    53     1     0     0
SMALL
bcc


@<TRIPOS>ATOM
      1 CAA          1.6230     3.7990     1.8270 c3         1 0OT      -0.093100
      2 CAL          2.6440     2.6930     1.7280 c3         1 0OT       0.142400
      3 OAT          2.4460     2.0170     0.4780 os         1 0OT      -0.325900
      4 CAY          3.2320     0.9390     0.2720 ca         1 0OT       0.172100
      5 CAV          4.4690     1.0720    -0.3540 ca         1 0OT      -0.052900
      6 BR2          5.0340     2.7720    -0.9300 br         1 0OT      -0.070100
      7 CAI          5.2850    -0.0240    -0.5980 ca         1 0OT      -0.061000
      8 CAU          4.8450    -1.2720    -0.1910 ca         1 0OT      -0.032900
      9 BR1          5.9350    -2.7790    -0.5020 br         1 0OT      -0.083100
     10 CAJ          3.6150    -1.4320     0.4290 ca         1 0OT      -0.081000
     11 CAX          2.8030    -0.3320     0.6680 ca         1 0OT      -0.107300
     12 CAP          1.4380    -0.5280     1.2700 c3         1 0OT       0.213100
     13 NAQ          0.4250    -0.4830     0.2330 n7         1 0OT      -0.791200
     14 CAN         -0.9210    -0.5220     0.7680 c3         1 0OT       0.163800
     15 CAM         -1.9460    -0.4880    -0.3530 c3         1 0OT      -0.097400
     16 CAO         -3.3670    -0.4710     0.1830 c3         1 0OT       0.224800
     17 NAR         -4.3080    -0.4550    -0.9180 nu         1 0OT      -0.801000
     18 CAW         -5.6410    -0.3460    -0.8110 cc         1 0OT       0.431000
     19 CAK         -6.4800    -0.4530    -1.9110 cd         1 0OT      -0.448200
     20 CAZ         -7.8860    -0.3200    -1.8120 c          1 0OT       0.610900
     21 OAB         -8.6600    -0.4050    -2.7770 o          1 0OT      -0.595100
     22 CBB         -8.3990    -0.0680    -0.4490 ca         1 0OT      -0.193600
     23 CAH         -9.7680     0.0740    -0.2070 ca         1 0OT      -0.043000
     24 CAF        -10.2450     0.3040     1.0660 ca         1 0OT      -0.173000
     25 CAE         -9.3480     0.3980     2.1330 ca         1 0OT      -0.076000
     26 CAG         -7.9920     0.2610     1.9220 ca         1 0OT      -0.198000
     27 CBA         -7.5140     0.0270     0.6300 ca         1 0OT       0.181600
     28 NAS         -6.1610    -0.1140     0.4160 na         1 0OT      -0.630400
     29 H1           0.6070     3.4030     1.8040 hc         1 0OT       0.047700
     30 H2           1.7540     4.3320     2.7670 hc         1 0OT       0.047700
     31 H3           1.7370     4.5160     1.0140 hc         1 0OT       0.047700
     32 H4           3.6590     3.0970     1.7810 h1         1 0OT       0.032200
     33 H5           2.5300     1.9860     2.5550 h1         1 0OT       0.032200
     34 H6           6.2400     0.0990    -1.0900 ha         1 0OT       0.164000
     35 H7           3.2730    -2.4140     0.7310 ha         1 0OT       0.148000
     36 H8           1.4320    -1.4680     1.8400 h1         1 0OT       0.038200
     37 H9           1.2220     0.2620     1.9920 h1         1 0OT       0.038200
     38 H10          0.5590    -1.2750    -0.3860 hn         1 0OT       0.355800
     39 H12         -1.1020    -1.4010     1.4070 h1         1 0OT       0.029700
     40 H13         -1.0540     0.3540     1.4110 h1         1 0OT       0.029700
     41 H14         -1.7800     0.3970    -0.9730 hc         1 0OT       0.061700
     42 H15         -1.8130    -1.3640    -0.9970 hc         1 0OT       0.061700
     43 H16         -3.5330    -1.3410     0.8290 h1         1 0OT       0.037700
     44 H17         -3.5000     0.4210     0.8020 h1         1 0OT       0.037700
     45 H18         -3.9620    -0.7260    -1.8240 hn         1 0OT       0.455800
     46 H19         -6.0330    -0.6420    -2.8790 ha         1 0OT       0.152000
     47 H21        -10.4530    -0.0010    -1.0410 ha         1 0OT       0.158000
     48 H22        -11.3070     0.4100     1.2400 ha         1 0OT       0.137000
     49 H23         -9.7140     0.5790     3.1350 ha         1 0OT       0.131000
     50 H24         -7.2970     0.3330     2.7510 ha         1 0OT       0.127000
     51 H11         -5.5510    -0.0430     1.2160 hn         1 0OT       0.442800
@<TRIPOS>BOND
     1     1     2 1   
     2     1    29 1   
     3     1    30 1   
     4     1    31 1   
     5     2     3 1   
     6     2    32 1   
     7     2    33 1   
     8     3     4 1   
     9     4     5 ar  
    10     4    11 ar  
    11     5     6 1   
    12     5     7 ar  
    13     7     8 ar  
    14     7    34 1   
    15     8     9 1   
    16     8    10 ar  
    17    10    11 ar  
    18    10    35 1   
    19    11    12 1   
    20    12    13 1   
    21    12    36 1   
    22    12    37 1   
    23    13    14 1   
    24    13    38 1   
    25    14    15 1   
    26    14    39 1   
    27    14    40 1   
    28    15    16 1   
    29    15    41 1   
    30    15    42 1   
    31    16    17 1   
    32    16    43 1   
    33    16    44 1   
    34    17    18 1   
    35    17    45 1   
    36    18    19 2   
    37    18    28 1   
    38    19    20 1   
    39    19    46 1   
    40    20    21 2   
    41    20    22 1   
    42    22    23 ar  
    43    22    27 ar  
    44    23    24 ar  
    45    23    47 1   
    46    24    25 ar  
    47    24    48 1   
    48    25    26 ar  
    49    25    49 1   
    50    26    27 ar  
    51    26    50 1   
    52    27    28 1   
    53    28    51 1   
@<TRIPOS>SUBSTRUCTURE
     1 0OT         1 TEMP              0 ****  ****    0 ROOT
