@<TRIPOS>MOLECULE
0OU
   44    46     1     0     0
SMALL
No Charge or Current Charge


@<TRIPOS>ATOM
      1 CAI         -5.2210     1.2100    -0.5760 ca         1 0OU      -0.093000
      2 CAS         -6.4730     1.1910     0.0620 ca         1 0OU       0.123000
      3 Cl1         -7.3960     2.6790     0.2250 cl         1 0OU      -0.192000
      4 CAH         -6.9900    -0.0110     0.5700 ca         1 0OU      -0.095000
      5 CAT         -6.2510    -1.1970     0.4400 ca         1 0OU       0.123000
      6 Cl2         -6.8930    -2.7050     1.0780 cl         1 0OU      -0.192000
      7 CAJ         -4.9990    -1.1830    -0.1970 ca         1 0OU      -0.093000
      8 CAU         -4.4750     0.0210    -0.7110 ca         1 0OU      -0.074300
      9 CAO         -3.1180     0.0330    -1.4000 c3         1 0OU       0.206100
     10 NAP         -2.0360     0.0110    -0.4010 n7         1 0OU      -0.865400
     11 CAM         -0.6710     0.0370    -0.9540 c3         1 0OU       0.164800
     12 CAL          0.3630    -0.0180     0.1850 c3         1 0OU      -0.096400
     13 CAN          1.8110    -0.0090    -0.3390 c3         1 0OU       0.220800
     14 NAQ          2.7670    -0.0610     0.7770 nu         1 0OU      -0.851200
     15 CAV          4.1130    -0.0640     0.7130 cc         1 0OU       0.425000
     16 CAK          4.9370    -0.1190     1.7920 cd         1 0OU      -0.494200
     17 CAW          6.3880    -0.1230     1.7340 c          1 0OU       0.610900
     18 OAA          7.0690    -0.1740     2.7510 o          1 0OU      -0.593100
     19 CAY          6.9740    -0.0620     0.3860 ca         1 0OU      -0.194600
     20 CAG          8.3680    -0.0590     0.1690 ca         1 0OU      -0.025000
     21 CAE          8.8680     0.0010    -1.1420 ca         1 0OU      -0.155000
     22 CAD          7.9810     0.0560    -2.2290 ca         1 0OU      -0.058000
     23 CAF          6.5950     0.0520    -1.9990 ca         1 0OU      -0.180000
     24 CAX          6.0880    -0.0080    -0.6890 ca         1 0OU       0.320000
     25 NAR          4.7090    -0.0090    -0.5160 na         1 0OU      -0.823000
     26 H1          -4.8320     2.1480    -0.9640 ha         1 0OU       0.139500
     27 H2          -7.9580    -0.0230     1.0640 ha         1 0OU       0.146000
     28 H3          -4.4320    -2.1060    -0.2900 ha         1 0OU       0.139500
     29 H4          -3.0470    -0.8410    -2.0630 h1         1 0OU       0.042700
     30 H5          -3.0410     0.9290    -2.0330 h1         1 0OU       0.042700
     31 H6          -2.1540     0.8310     0.2070 hn         1 0OU       0.416000
     32 H8          -0.5140    -0.8220    -1.6220 h1         1 0OU       0.032200
     33 H9          -0.5130     0.9530    -1.5410 h1         1 0OU       0.032200
     34 H10          0.2140     0.8400     0.8510 hc         1 0OU       0.060700
     35 H11          0.1980    -0.9270     0.7760 hc         1 0OU       0.060700
     36 H12          1.9600    -0.8730    -1.0000 h1         1 0OU       0.038700
     37 H13          1.9740     0.9040    -0.9280 h1         1 0OU       0.038700
     38 H14          2.3900    -0.1080     1.7230 hn         1 0OU       0.507000
     39 H15          4.5370    -0.1640     2.7940 ha         1 0OU       0.202000
     40 H17          9.0590    -0.1010     1.0100 ha         1 0OU       0.140000
     41 H18          9.9420     0.0040    -1.3150 ha         1 0OU       0.119000
     42 H19          8.3660     0.1020    -3.2460 ha         1 0OU       0.113000
     43 H20          5.9140     0.0950    -2.8450 ha         1 0OU       0.110000
     44 H7           4.1140     0.0320    -1.3300 hn         1 0OU       0.498000
@<TRIPOS>BOND
     1     1     2 ar  
     2     1     8 ar  
     3     1    26 1   
     4     2     3 1   
     5     2     4 ar  
     6     4     5 ar  
     7     4    27 1   
     8     5     6 1   
     9     5     7 ar  
    10     7     8 ar  
    11     7    28 1   
    12     8     9 1   
    13     9    10 1   
    14     9    29 1   
    15     9    30 1   
    16    10    11 1   
    17    10    31 1   
    18    11    12 1   
    19    11    32 1   
    20    11    33 1   
    21    12    13 1   
    22    12    34 1   
    23    12    35 1   
    24    13    14 1   
    25    13    36 1   
    26    13    37 1   
    27    14    15 1   
    28    14    38 1   
    29    15    16 2   
    30    15    25 1   
    31    16    17 1   
    32    16    39 1   
    33    17    18 2   
    34    17    19 1   
    35    19    20 ar  
    36    19    24 ar  
    37    20    21 ar  
    38    20    40 1   
    39    21    22 ar  
    40    21    41 1   
    41    22    23 ar  
    42    22    42 1   
    43    23    24 ar  
    44    23    43 1   
    45    24    25 1   
    46    25    44 1   
@<TRIPOS>SUBSTRUCTURE
     1 0OU         1 TEMP              0 ****  ****    0 ROOT
