@<TRIPOS>MOLECULE
0OU
   44    46     1     0     0
SMALL
abcg2


@<TRIPOS>ATOM
      1 CAI         -5.3910     0.9350    -1.1990 ca         1 0OU      -0.093000
      2 CAS         -6.6640     0.8780    -0.6530 ca         1 0OU       0.123000
      3 CL1         -7.9160     1.8720    -1.3170 cl         1 0OU      -0.192000
      4 CAH         -6.9620     0.0520     0.4180 ca         1 0OU      -0.095000
      5 CAT         -5.9360    -0.7250     0.9320 ca         1 0OU       0.123000
      6 CL2         -6.2760    -1.7670     2.2740 cl         1 0OU      -0.192000
      7 CAJ         -4.6560    -0.6920     0.4090 ca         1 0OU      -0.093000
      8 CAU         -4.3800     0.1430    -0.6700 ca         1 0OU      -0.074300
      9 CAO         -3.0020     0.1710    -1.2790 c3         1 0OU       0.206100
     10 NAP         -1.9700     0.1010    -0.2670 n7         1 0OU      -0.865400
     11 CAM         -0.6340     0.0310    -0.8270 c3         1 0OU       0.164800
     12 CAL          0.4010    -0.0800     0.2810 c3         1 0OU      -0.096400
     13 CAN          1.8170    -0.1110    -0.2700 c3         1 0OU       0.220800
     14 NAQ          2.7610    -0.2930     0.8140 nu         1 0OU      -0.851200
     15 CAV          4.0990    -0.3070     0.6880 cc         1 0OU       0.425000
     16 CAK          4.9300    -0.6960     1.7280 cd         1 0OU      -0.494200
     17 CAW          6.3420    -0.6880     1.6170 c          1 0OU       0.610900
     18 OAA          7.1140    -1.0260     2.5260 o          1 0OU      -0.593100
     19 CAY          6.8670    -0.2460     0.3080 ca         1 0OU      -0.194600
     20 CAG          8.2410    -0.1990     0.0610 ca         1 0OU      -0.025000
     21 CAE          8.7300     0.2090    -1.1620 ca         1 0OU      -0.155000
     22 CAD          7.8390     0.5820    -2.1720 ca         1 0OU      -0.058000
     23 CAF          6.4780     0.5450    -1.9550 ca         1 0OU      -0.180000
     24 CAX          5.9880     0.1300    -0.7130 ca         1 0OU       0.320000
     25 NAR          4.6300     0.0870    -0.4920 na         1 0OU      -0.823000
     26 H1          -5.1860     1.5970    -2.0310 ha         1 0OU       0.139500
     27 H2          -7.9570     0.0180     0.8390 ha         1 0OU       0.146000
     28 H3          -3.8710    -1.3030     0.8340 ha         1 0OU       0.139500
     29 H4          -2.8920    -0.6980    -1.9350 h1         1 0OU       0.042700
     30 H5          -2.9160     1.0530    -1.9310 h1         1 0OU       0.042700
     31 H6          -2.0370     0.9180     0.3290 hn         1 0OU       0.416000
     32 H8          -0.5760    -0.8540    -1.4680 h1         1 0OU       0.032200
     33 H9          -0.4000     0.8930    -1.4700 h1         1 0OU       0.032200
     34 H10          0.3030     0.7670     0.9660 hc         1 0OU       0.060700
     35 H11          0.2100    -0.9880     0.8590 hc         1 0OU       0.060700
     36 H12          1.9130    -0.9110    -1.0140 h1         1 0OU       0.038700
     37 H13          2.0170     0.8350    -0.7820 h1         1 0OU       0.038700
     38 H14          2.4050    -0.7160     1.6560 hn         1 0OU       0.507000
     39 H15          4.4730    -1.0160     2.6560 ha         1 0OU       0.202000
     40 H17          8.9200    -0.4910     0.8510 ha         1 0OU       0.140000
     41 H18          9.7970     0.2420    -1.3420 ha         1 0OU       0.119000
     42 H19          8.2140     0.9050    -3.1340 ha         1 0OU       0.113000
     43 H20          5.7890     0.8320    -2.7400 ha         1 0OU       0.110000
     44 H7           4.0260     0.3710    -1.2480 hn         1 0OU       0.498000
@<TRIPOS>BOND
     1     1     2 ar  
     2     1     8 ar  
     3     1    26 1   
     4     2     3 1   
     5     2     4 ar  
     6     4     5 ar  
     7     4    27 1   
     8     5     6 1   
     9     5     7 ar  
    10     7     8 ar  
    11     7    28 1   
    12     8     9 1   
    13     9    10 1   
    14     9    29 1   
    15     9    30 1   
    16    10    11 1   
    17    10    31 1   
    18    11    12 1   
    19    11    32 1   
    20    11    33 1   
    21    12    13 1   
    22    12    34 1   
    23    12    35 1   
    24    13    14 1   
    25    13    36 1   
    26    13    37 1   
    27    14    15 1   
    28    14    38 1   
    29    15    16 2   
    30    15    25 1   
    31    16    17 1   
    32    16    39 1   
    33    17    18 2   
    34    17    19 1   
    35    19    20 ar  
    36    19    24 ar  
    37    20    21 ar  
    38    20    40 1   
    39    21    22 ar  
    40    21    41 1   
    41    22    23 ar  
    42    22    42 1   
    43    23    24 ar  
    44    23    43 1   
    45    24    25 1   
    46    25    44 1   
@<TRIPOS>SUBSTRUCTURE
     1 0OU         1 TEMP              0 ****  ****    0 ROOT
