@<TRIPOS>MOLECULE
0OV
   42    44     1     0     0
SMALL
abcg2


@<TRIPOS>ATOM
      1 C24          1.6500    -0.1850    -0.2870 ca         1 0OV       0.429900
      2 C22          1.8130    -3.1880     0.2590 c1         1 0OV       0.286900
      3 C21          2.1930    -2.4590    -0.9510 c3         1 0OV       0.300900
      4 C18          4.3380     0.5140    -0.4890 cc         1 0OV      -0.353200
      5 C16          3.4160     1.5600    -0.1050 c          1 0OV       0.621900
      6 C15          2.0330     1.1330    -0.0180 ca         1 0OV      -0.418600
      7 C6          -3.7840     0.2750    -1.8590 c6         1 0OV      -0.072400
      8 C4          -4.4360    -1.2980     0.0070 c6         1 0OV      -0.070400
      9 C2          -3.9460    -0.2850     1.0430 c6         1 0OV      -0.058700
     10 C1          -3.5210    -0.9530     2.3440 c3         1 0OV      -0.088100
     11 C11         -0.5030     0.2660     0.1400 ca         1 0OV       0.463300
     12 C5          -4.8760    -0.6230    -1.2880 c6         1 0OV      -0.073400
     13 C7          -3.3020     1.2860    -0.8230 c6         1 0OV      -0.098400
     14 C8          -2.8560     0.6160     0.4690 c6         1 0OV       0.195300
     15 O10         -1.7200    -0.2300     0.2120 os         1 0OV      -0.439300
     16 N12         -0.3010     1.5400     0.4110 nb         1 0OV      -0.388000
     17 C13          0.9530     1.9950     0.3460 ca         1 0OV       0.482900
     18 N14          1.1560     3.2730     0.6290 nv         1 0OV      -1.051900
     19 O17          3.7880     2.7160     0.1300 o          1 0OV      -0.609100
     20 C19          3.9100    -0.7370    -0.7400 cd         1 0OV       0.058000
     21 N20          2.5990    -1.1010    -0.6550 na         1 0OV      -0.621100
     22 N23          1.5300    -3.7800     1.2020 n1         1 0OV      -0.430000
     23 N25          0.4060    -0.6340    -0.2080 nb         1 0OV      -0.312000
     24 H1           3.0220    -2.9820    -1.4250 h1         1 0OV       0.089200
     25 H2           1.3530    -2.4710    -1.6450 h1         1 0OV       0.089200
     26 H3           5.3910     0.7390    -0.5780 ha         1 0OV       0.213000
     27 H4          -2.9440    -0.3330    -2.2060 hc         1 0OV       0.044200
     28 H5          -4.1570     0.8070    -2.7380 hc         1 0OV       0.044200
     29 H6          -3.6450    -2.0260    -0.1980 hc         1 0OV       0.047700
     30 H7          -5.2680    -1.8660     0.4310 hc         1 0OV       0.047700
     31 H8          -4.7800     0.3910     1.2680 hc         1 0OV       0.050700
     32 H9          -2.7290    -1.6850     2.1820 hc         1 0OV       0.039700
     33 H10         -3.1590    -0.2200     3.0680 hc         1 0OV       0.039700
     34 H11         -4.3630    -1.4760     2.7990 hc         1 0OV       0.039700
     35 H12         -5.7690    -0.0190    -1.0910 hc         1 0OV       0.037700
     36 H13         -5.1700    -1.3770    -2.0230 hc         1 0OV       0.037700
     37 H14         -2.4940     1.9030    -1.2240 hc         1 0OV       0.052700
     38 H15         -4.1160     1.9730    -0.5740 hc         1 0OV       0.052700
     39 H16         -2.5820     1.3730     1.2080 h1         1 0OV       0.069700
     40 H17          2.0920     3.6480     0.5950 hn         1 0OV       0.522000
     41 H18          0.3780     3.8580     0.8840 hn         1 0OV       0.522000
     42 H19          4.5930    -1.5240    -1.0290 h4         1 0OV       0.202000
@<TRIPOS>BOND
     1     1     6 ar  
     2     1    21 1   
     3     1    23 ar  
     4     2     3 1   
     5     2    22 3   
     6     3    21 1   
     7     3    24 1   
     8     3    25 1   
     9     4     5 1   
    10     4    20 2   
    11     4    26 1   
    12     5     6 1   
    13     5    19 2   
    14     6    17 ar  
    15     7    12 1   
    16     7    13 1   
    17     7    27 1   
    18     7    28 1   
    19     8     9 1   
    20     8    12 1   
    21     8    29 1   
    22     8    30 1   
    23     9    10 1   
    24     9    14 1   
    25     9    31 1   
    26    10    32 1   
    27    10    33 1   
    28    10    34 1   
    29    11    15 1   
    30    11    16 ar  
    31    11    23 ar  
    32    12    35 1   
    33    12    36 1   
    34    13    14 1   
    35    13    37 1   
    36    13    38 1   
    37    14    15 1   
    38    14    39 1   
    39    16    17 ar  
    40    17    18 1   
    41    18    40 1   
    42    18    41 1   
    43    20    21 1   
    44    20    42 1   
@<TRIPOS>SUBSTRUCTURE
     1 0OV         1 TEMP              0 ****  ****    0 ROOT
