@<TRIPOS>MOLECULE
0OV
   42    44     1     0     0
SMALL
No Charge or Current Charge


@<TRIPOS>ATOM
      1 C24          1.6570    -0.1950    -0.3200 ca         1 0OV       0.429900
      2 C22          2.3050    -3.2810     0.3350 c1         1 0OV       0.286900
      3 C21          2.2630    -2.5540    -0.9500 c3         1 0OV       0.300900
      4 C18          4.1540     0.6940    -1.0390 cc         1 0OV      -0.353200
      5 C16          3.3800     1.5730    -0.1950 c          1 0OV       0.621900
      6 C15          2.0150     1.1030     0.0620 ca         1 0OV      -0.418600
      7 C6          -3.4420     0.0470    -1.8880 c6         1 0OV      -0.072400
      8 C4          -4.5570    -1.2630     0.0070 c6         1 0OV      -0.070400
      9 C2          -4.1960    -0.1290     1.0080 c6         1 0OV      -0.058700
     10 C1          -4.0840    -0.6660     2.4630 c3         1 0OV      -0.088100
     11 C11         -0.4880     0.2430     0.4580 ca         1 0OV       0.463300
     12 C5          -4.7100    -0.7180    -1.4360 c6         1 0OV      -0.073400
     13 C7          -3.0870     1.1750    -0.8870 c6         1 0OV      -0.098400
     14 C8          -2.9090     0.6300     0.5610 c6         1 0OV       0.195300
     15 O10         -1.7590    -0.2480     0.6460 os         1 0OV      -0.439300
     16 N12         -0.2050     1.4910     0.8570 nb         1 0OV      -0.388000
     17 C13          1.0350     1.9020     0.6460 ca         1 0OV       0.482900
     18 N14          1.2490     3.1720     1.0300 nv         1 0OV      -1.051900
     19 O17          3.8300     2.6320     0.2240 o          1 0OV      -0.609100
     20 C19          3.7890    -0.5730    -1.4220 cd         1 0OV       0.058000
     21 N20          2.6030    -1.0940    -0.8630 na         1 0OV      -0.621100
     22 N23          2.3360    -3.8330     1.3630 n1         1 0OV      -0.430000
     23 N25          0.3880    -0.5980    -0.1090 nb         1 0OV      -0.312000
     24 H1           2.9650    -3.0500    -1.6300 h1         1 0OV       0.089200
     25 H2           1.2650    -2.6810    -1.3870 h1         1 0OV       0.089200
     26 H3           5.1130     1.1000    -1.3360 ha         1 0OV       0.213000
     27 H4          -2.5980    -0.6520    -1.9770 hc         1 0OV       0.044200
     28 H5          -3.6010     0.4720    -2.8880 hc         1 0OV       0.044200
     29 H6          -3.7820    -2.0420     0.0260 hc         1 0OV       0.047700
     30 H7          -5.4930    -1.7510     0.3140 hc         1 0OV       0.047700
     31 H8          -5.0250     0.5930     1.0210 hc         1 0OV       0.050700
     32 H9          -3.3000    -1.4270     2.5530 hc         1 0OV       0.039700
     33 H10         -3.8480     0.1420     3.1660 hc         1 0OV       0.039700
     34 H11         -5.0270    -1.1210     2.7890 hc         1 0OV       0.039700
     35 H12         -5.5820    -0.0510    -1.4870 hc         1 0OV       0.037700
     36 H13         -4.9110    -1.5470    -2.1270 hc         1 0OV       0.037700
     37 H14         -2.1790     1.6960    -1.2170 hc         1 0OV       0.052700
     38 H15         -3.8850     1.9310    -0.8910 hc         1 0OV       0.052700
     39 H16         -2.7590     1.4770     1.2470 h1         1 0OV       0.069700
     40 H17          2.2250     3.4680     1.0490 hn         1 0OV       0.522000
     41 H18          0.6310     3.5730     1.7290 hn         1 0OV       0.522000
     42 H19          4.4160    -1.2270    -2.0290 h4         1 0OV       0.202000
@<TRIPOS>BOND
     1     1     6 ar  
     2     1    21 1   
     3     1    23 ar  
     4     2     3 1   
     5     2    22 3   
     6     3    21 1   
     7     3    24 1   
     8     3    25 1   
     9     4     5 1   
    10     4    20 2   
    11     4    26 1   
    12     5     6 1   
    13     5    19 2   
    14     6    17 ar  
    15     7    12 1   
    16     7    13 1   
    17     7    27 1   
    18     7    28 1   
    19     8     9 1   
    20     8    12 1   
    21     8    29 1   
    22     8    30 1   
    23     9    10 1   
    24     9    14 1   
    25     9    31 1   
    26    10    32 1   
    27    10    33 1   
    28    10    34 1   
    29    11    15 1   
    30    11    16 ar  
    31    11    23 ar  
    32    12    35 1   
    33    12    36 1   
    34    13    14 1   
    35    13    37 1   
    36    13    38 1   
    37    14    15 1   
    38    14    39 1   
    39    16    17 ar  
    40    17    18 1   
    41    18    40 1   
    42    18    41 1   
    43    20    21 1   
    44    20    42 1   
@<TRIPOS>SUBSTRUCTURE
     1 0OV         1 TEMP              0 ****  ****    0 ROOT
