@<TRIPOS>MOLECULE
0OW
   45    47     1     0     0
SMALL
abcg2


@<TRIPOS>ATOM
      1 N1          -2.8220     2.5970    -0.1000 nt         1 0OW      -0.590000
      2 C2          -1.5180     2.9120    -0.1020 c          1 0OW       0.657700
      3 C4          -0.5050     1.8340    -0.0940 ca         1 0OW      -0.410600
      4 C5           0.8830     2.1390    -0.2000 ca         1 0OW       0.477900
      5 C10          3.6750    -0.7650    -0.2810 c5         1 0OW       0.182300
      6 C11          4.3190    -0.2910     1.0220 c5         1 0OW      -0.092900
      7 C12          5.7960    -0.7190     0.9030 c5         1 0OW      -0.078900
      8 C13          5.8740    -1.6470    -0.3300 c5         1 0OW      -0.078900
      9 C14          4.4280    -2.0410    -0.6210 c5         1 0OW      -0.092900
     10 O3          -1.1750     4.1010    -0.1220 o          1 0OW      -0.686100
     11 N6           1.3520     3.3780    -0.2900 nv         1 0OW      -1.054900
     12 N7           1.8160     1.1710    -0.2210 nb         1 0OW      -0.387000
     13 C8           1.4030    -0.0670    -0.1360 ca         1 0OW       0.457300
     14 O9           2.2800    -1.0550    -0.1650 os         1 0OW      -0.439300
     15 N15          0.1490    -0.4860    -0.0170 nb         1 0OW      -0.341000
     16 C16         -0.7710     0.4540     0.0070 ca         1 0OW       0.445300
     17 O17         -2.0300     0.0790     0.1460 os         1 0OW      -0.460300
     18 C18         -2.3890    -1.2980     0.1910 c5         1 0OW       0.189300
     19 C20         -2.3700    -2.0030    -1.1700 c5         1 0OW      -0.096400
     20 C21         -3.5300    -3.0210    -1.1030 c5         1 0OW      -0.070400
     21 C22         -4.1600    -2.8400     0.2880 c5         1 0OW      -0.120400
     22 C23         -3.8310    -1.4030     0.6700 c5         1 0OW       0.161300
     23 O25         -4.5880    -0.4670    -0.0650 oh         1 0OW      -0.653000
     24 H1          -3.1710     1.6530    -0.0930 hn         1 0OW       0.328500
     25 H2          -3.4880     3.3510    -0.1220 hn         1 0OW       0.328500
     26 H3           3.8270    -0.0250    -1.0710 h1         1 0OW       0.066700
     27 H4           4.1930     0.7790     1.1790 hc         1 0OW       0.058700
     28 H5           3.8370    -0.8030     1.8580 hc         1 0OW       0.058700
     29 H6           6.4560     0.1400     0.7880 hc         1 0OW       0.044700
     30 H7           6.1170    -1.2370     1.8070 hc         1 0OW       0.044700
     31 H8           6.2850    -1.1030    -1.1830 hc         1 0OW       0.044700
     32 H9           6.5170    -2.5110    -0.1650 hc         1 0OW       0.044700
     33 H10          4.1070    -2.8460     0.0460 hc         1 0OW       0.058700
     34 H11          4.2690    -2.3710    -1.6480 hc         1 0OW       0.058700
     35 H12          0.7100     4.1540    -0.2560 hn         1 0OW       0.523000
     36 H13          2.3450     3.5190    -0.3540 hn         1 0OW       0.523000
     37 H14         -1.7450    -1.8210     0.9020 h1         1 0OW       0.076700
     38 H15         -2.5290    -1.2760    -1.9680 hc         1 0OW       0.065700
     39 H16         -1.4060    -2.4740    -1.3520 hc         1 0OW       0.065700
     40 H17         -4.2610    -2.8170    -1.8850 hc         1 0OW       0.047700
     41 H18         -3.1850    -4.0430    -1.2540 hc         1 0OW       0.047700
     42 H19         -5.2330    -3.0390     0.3090 hc         1 0OW       0.052200
     43 H20         -3.6970    -3.5150     1.0130 hc         1 0OW       0.052200
     44 H21         -3.9180    -1.2270     1.7500 h1         1 0OW       0.049700
     45 H22         -5.5160    -0.5860     0.1610 ho         1 0OW       0.443000
@<TRIPOS>BOND
     1     1     2 1   
     2     1    24 1   
     3     1    25 1   
     4     2     3 1   
     5     2    10 2   
     6     3     4 ar  
     7     3    16 ar  
     8     4    11 1   
     9     4    12 ar  
    10     5     6 1   
    11     5     9 1   
    12     5    14 1   
    13     5    26 1   
    14     6     7 1   
    15     6    27 1   
    16     6    28 1   
    17     7     8 1   
    18     7    29 1   
    19     7    30 1   
    20     8     9 1   
    21     8    31 1   
    22     8    32 1   
    23     9    33 1   
    24     9    34 1   
    25    11    35 1   
    26    11    36 1   
    27    12    13 ar  
    28    13    14 1   
    29    13    15 ar  
    30    15    16 ar  
    31    16    17 1   
    32    17    18 1   
    33    18    19 1   
    34    18    22 1   
    35    18    37 1   
    36    19    20 1   
    37    19    38 1   
    38    19    39 1   
    39    20    21 1   
    40    20    40 1   
    41    20    41 1   
    42    21    22 1   
    43    21    42 1   
    44    21    43 1   
    45    22    23 1   
    46    22    44 1   
    47    23    45 1   
@<TRIPOS>SUBSTRUCTURE
     1 0OW         1 TEMP              0 ****  ****    0 ROOT
