@<TRIPOS>MOLECULE
0OW
   45    47     1     0     0
SMALL
No Charge or Current Charge


@<TRIPOS>ATOM
      1 N1          -2.6170     2.3310     0.0590 nt         1 0OW      -0.590000
      2 C2          -1.4480     2.6620    -0.5100 c          1 0OW       0.657700
      3 C4          -0.3700     1.6210    -0.6580 ca         1 0OW      -0.410600
      4 C5           0.7830     1.8670    -1.4080 ca         1 0OW       0.477900
      5 C10          3.8150    -0.6720    -0.3280 c5         1 0OW       0.182300
      6 C11          3.5860    -0.8540     1.2040 c5         1 0OW      -0.092900
      7 C12          5.0010    -1.2070     1.7710 c5         1 0OW      -0.078900
      8 C13          5.9250    -1.2970     0.5210 c5         1 0OW      -0.078900
      9 C14          4.9340    -1.7030    -0.5940 c5         1 0OW      -0.092900
     10 O3          -1.3080     3.8180    -0.8730 o          1 0OW      -0.686100
     11 N6           0.9930     3.0110    -2.0790 nv         1 0OW      -1.054900
     12 N7           1.7750     0.9960    -1.5450 nb         1 0OW      -0.387000
     13 C8           1.6400    -0.1780    -0.9110 ca         1 0OW       0.457300
     14 O9           2.6380    -1.1130    -1.0560 os         1 0OW      -0.439300
     15 N15          0.5730    -0.5410    -0.1880 nb         1 0OW      -0.341000
     16 C16         -0.4360     0.3420    -0.0680 ca         1 0OW       0.445300
     17 O17         -1.5090     0.0120     0.7320 os         1 0OW      -0.460300
     18 C18         -2.0710    -1.2800     0.3490 c5         1 0OW       0.189300
     19 C20         -2.6220    -1.2430    -1.1100 c5         1 0OW      -0.096400
     20 C21         -3.7470    -2.3310    -1.1020 c5         1 0OW      -0.070400
     21 C22         -3.9180    -2.7350     0.4010 c5         1 0OW      -0.120400
     22 C23         -3.3770    -1.5060     1.1770 c5         1 0OW       0.161300
     23 O25         -4.3100    -0.4120     1.1230 oh         1 0OW      -0.653000
     24 H1          -2.7510     1.3900     0.4070 hn         1 0OW       0.328500
     25 H2          -3.3310     3.0330     0.1680 hn         1 0OW       0.328500
     26 H3           4.1210     0.3460    -0.6090 h1         1 0OW       0.066700
     27 H4           3.1780     0.0540     1.6610 hc         1 0OW       0.058700
     28 H5           2.8770    -1.6640     1.4120 hc         1 0OW       0.058700
     29 H6           5.3600    -0.4540     2.4820 hc         1 0OW       0.044700
     30 H7           4.9730    -2.1620     2.3100 hc         1 0OW       0.044700
     31 H8           6.3960    -0.3300     0.3030 hc         1 0OW       0.044700
     32 H9           6.7320    -2.0280     0.6510 hc         1 0OW       0.044700
     33 H10          4.5850    -2.7370    -0.4800 hc         1 0OW       0.058700
     34 H11          5.3660    -1.6000    -1.5950 hc         1 0OW       0.058700
     35 H12          0.3500     3.7680    -1.8390 hn         1 0OW       0.523000
     36 H13          1.9510     3.2720    -2.2910 hn         1 0OW       0.523000
     37 H14         -1.3500    -2.0940     0.5150 h1         1 0OW       0.076700
     38 H15         -3.0330    -0.2600    -1.3650 hc         1 0OW       0.065700
     39 H16         -1.8440    -1.4680    -1.8490 hc         1 0OW       0.065700
     40 H17         -4.6790    -1.9260    -1.5140 hc         1 0OW       0.047700
     41 H18         -3.4830    -3.1990    -1.7180 hc         1 0OW       0.047700
     42 H19         -4.9580    -2.9710     0.6540 hc         1 0OW       0.052200
     43 H20         -3.3280    -3.6300     0.6340 hc         1 0OW       0.052200
     44 H21         -3.1470    -1.7620     2.2210 h1         1 0OW       0.049700
     45 H22         -5.1130    -0.7020     1.6060 ho         1 0OW       0.443000
@<TRIPOS>BOND
     1     1     2 1   
     2     1    24 1   
     3     1    25 1   
     4     2     3 1   
     5     2    10 2   
     6     3     4 ar  
     7     3    16 ar  
     8     4    11 1   
     9     4    12 ar  
    10     5     6 1   
    11     5     9 1   
    12     5    14 1   
    13     5    26 1   
    14     6     7 1   
    15     6    27 1   
    16     6    28 1   
    17     7     8 1   
    18     7    29 1   
    19     7    30 1   
    20     8     9 1   
    21     8    31 1   
    22     8    32 1   
    23     9    33 1   
    24     9    34 1   
    25    11    35 1   
    26    11    36 1   
    27    12    13 ar  
    28    13    14 1   
    29    13    15 ar  
    30    15    16 ar  
    31    16    17 1   
    32    17    18 1   
    33    18    19 1   
    34    18    22 1   
    35    18    37 1   
    36    19    20 1   
    37    19    38 1   
    38    19    39 1   
    39    20    21 1   
    40    20    40 1   
    41    20    41 1   
    42    21    22 1   
    43    21    42 1   
    44    21    43 1   
    45    22    23 1   
    46    22    44 1   
    47    23    45 1   
@<TRIPOS>SUBSTRUCTURE
     1 0OW         1 TEMP              0 ****  ****    0 ROOT
