@<TRIPOS>MOLECULE
0OX
   30    31     1     0     0
SMALL
bcc


@<TRIPOS>ATOM
      1 C2           3.6870     0.7290     0.0790 c          1 0OX       0.717700
      2 C4           2.2700     0.3060     0.0220 ca         1 0OX      -0.521200
      3 C5           1.2200     1.2020    -0.0230 ca         1 0OX       0.531200
      4 C10         -3.8490    -0.6320    -0.8740 c5         1 0OX      -0.092900
      5 C11         -4.9520     0.3550    -0.5110 c5         1 0OX      -0.079400
      6 C12         -4.5830     0.8350     0.9050 c5         1 0OX      -0.079400
      7 C13         -3.0620     0.6040     1.0440 c5         1 0OX      -0.092900
      8 N1           3.9580     2.0000    -0.2570 nt         1 0OX      -0.665000
      9 O3           4.5780    -0.0460     0.4270 o          1 0OX      -0.648100
     10 N6          -0.0600     0.8640    -0.0860 nb         1 0OX      -0.832000
     11 C7          -0.2940    -0.4420    -0.1170 ca         1 0OX       0.951300
     12 O8          -1.5380    -0.8750    -0.2340 os         1 0OX      -0.414100
     13 C9          -2.6160     0.0600    -0.3160 c5         1 0OX       0.158100
     14 N14          0.5970    -1.4090    -0.0430 nb         1 0OX      -0.834000
     15 C15          1.8850    -1.0680     0.0490 ca         1 0OX       0.792200
     16 N16          2.7600    -2.0640     0.1450 nv         1 0OX      -0.945500
     17 H1           1.4060     2.2700     0.0110 h4         1 0OX       0.011100
     18 H3          -3.7770    -0.8330    -1.9440 hc         1 0OX       0.058950
     19 H4          -4.9390     1.1950    -1.2100 hc         1 0OX       0.045450
     20 H5          -5.9480    -0.0860    -0.5610 hc         1 0OX       0.045450
     21 H6          -4.8550     1.8790     1.0600 hc         1 0OX       0.045450
     22 H7          -5.1220     0.2570     1.6560 hc         1 0OX       0.045450
     23 H8          -2.5180     1.5080     1.3180 hc         1 0OX       0.058950
     24 H9          -2.8550    -0.1430     1.8140 hc         1 0OX       0.058950
     25 H10          3.2890     2.6060    -0.6990 hn         1 0OX       0.314000
     26 H11          4.9150     2.3120    -0.2560 hn         1 0OX       0.314000
     27 H12         -2.3300     0.8820    -0.9770 h1         1 0OX       0.067700
     28 H13          3.7360    -1.8640     0.2910 hn         1 0OX       0.465800
     29 H14          2.4280    -3.0120     0.1800 hn         1 0OX       0.465800
     30 H2          -4.0080    -1.5850    -0.3590 hc         1 0OX       0.058950
@<TRIPOS>BOND
     1     1     2 1   
     2     1     8 1   
     3     1     9 2   
     4     2     3 ar  
     5     2    15 ar  
     6     3    10 ar  
     7     3    17 1   
     8     4     5 1   
     9     4    13 1   
    10     4    18 1   
    11     4    30 1   
    12     5     6 1   
    13     5    19 1   
    14     5    20 1   
    15     6     7 1   
    16     6    21 1   
    17     6    22 1   
    18     7    13 1   
    19     7    23 1   
    20     7    24 1   
    21     8    25 1   
    22     8    26 1   
    23    10    11 ar  
    24    11    12 1   
    25    11    14 ar  
    26    12    13 1   
    27    13    27 1   
    28    14    15 ar  
    29    15    16 1   
    30    16    28 1   
    31    16    29 1   
@<TRIPOS>SUBSTRUCTURE
     1 0OX         1 TEMP              0 ****  ****    0 ROOT
