@<TRIPOS>MOLECULE
0OX
   30    31     1     0     0
SMALL
No Charge or Current Charge


@<TRIPOS>ATOM
      1 C2           3.5560     0.8040     0.2500 c          1 0OX       0.650700
      2 C4           2.1740     0.3850    -0.1460 ca         1 0OX      -0.390600
      3 C5           1.3810     1.1870    -0.9850 ca         1 0OX       0.202900
      4 C10         -3.9830    -0.2630    -1.1160 c5         1 0OX      -0.092900
      5 C11         -4.8720     0.5290    -0.1280 c5         1 0OX      -0.079400
      6 C12         -4.2100     0.2110     1.2450 c5         1 0OX      -0.079400
      7 C13         -2.7100    -0.0880     0.9120 c5         1 0OX      -0.092900
      8 N1           4.0570     1.9180    -0.3140 nt         1 0OX      -0.598000
      9 O3           4.2340     0.2030     1.0670 o          1 0OX      -0.648100
     10 N6           0.1320     0.8330    -1.3330 nb         1 0OX      -0.306000
     11 C7          -0.3470    -0.3260    -0.8330 ca         1 0OX       0.425300
     12 O8          -1.6130    -0.7220    -1.2030 os         1 0OX      -0.437300
     13 C9          -2.5910     0.1820    -0.6190 c5         1 0OX       0.181300
     14 N14          0.3430    -1.1680    -0.0440 nb         1 0OX      -0.308000
     15 C15          1.5830    -0.8060     0.2890 ca         1 0OX       0.463900
     16 N16          2.2260    -1.6940     1.0730 nv         1 0OX      -1.055900
     17 H1           1.7320     2.1340    -1.3900 h4         1 0OX       0.011100
     18 H3          -4.1640     0.0200    -2.1590 hc         1 0OX       0.058950
     19 H4          -4.8460     1.6040    -0.3430 hc         1 0OX       0.045450
     20 H5          -5.9220     0.2170    -0.1670 hc         1 0OX       0.045450
     21 H6          -4.3180     1.0470     1.9450 hc         1 0OX       0.045450
     22 H7          -4.6810    -0.6600     1.7180 hc         1 0OX       0.045450
     23 H8          -2.0290     0.5480     1.4890 hc         1 0OX       0.058950
     24 H9          -2.4630    -1.1280     1.1580 hc         1 0OX       0.058950
     25 H10          3.5150     2.4320    -0.9910 hn         1 0OX       0.314000
     26 H11          4.9830     2.2230    -0.0570 hn         1 0OX       0.314000
     27 H12         -2.3850     1.2340    -0.8650 h1         1 0OX       0.067700
     28 H13          3.1020    -1.3630     1.4820 hn         1 0OX       0.521000
     29 H14          1.6730    -2.3420     1.6270 hn         1 0OX       0.521000
     30 H2          -4.1330    -1.3460    -1.0280 hc         1 0OX       0.058950
@<TRIPOS>BOND
     1     1     2 1   
     2     1     8 1   
     3     1     9 2   
     4     2     3 ar  
     5     2    15 ar  
     6     3    10 ar  
     7     3    17 1   
     8     4     5 1   
     9     4    13 1   
    10     4    18 1   
    11     4    30 1   
    12     5     6 1   
    13     5    19 1   
    14     5    20 1   
    15     6     7 1   
    16     6    21 1   
    17     6    22 1   
    18     7    13 1   
    19     7    23 1   
    20     7    24 1   
    21     8    25 1   
    22     8    26 1   
    23    10    11 ar  
    24    11    12 1   
    25    11    14 ar  
    26    12    13 1   
    27    13    27 1   
    28    14    15 ar  
    29    15    16 1   
    30    16    28 1   
    31    16    29 1   
@<TRIPOS>SUBSTRUCTURE
     1 0OX         1 TEMP              0 ****  ****    0 ROOT
