@<TRIPOS>MOLECULE
0OY
   28    29     1     0     0
SMALL
No Charge or Current Charge


@<TRIPOS>ATOM
      1 O1          -0.8020    -2.1610     0.5720 o          1 0OY      -0.596100
      2 C1          -0.5160    -1.0570     0.1260 c          1 0OY       0.624700
      3 N           -1.5110    -0.2210    -0.4330 n          1 0OY      -0.410800
      4 C11         -2.8960    -0.7270    -0.6810 c6         1 0OY       0.059500
      5 C10         -3.9120    -0.1650     0.3470 c6         1 0OY       0.129600
      6 O3          -3.8450     1.2780     0.3610 os         1 0OY      -0.444000
      7 C9          -2.5400     1.7790     0.7220 c6         1 0OY       0.129600
      8 C8          -1.4670     1.2680    -0.2780 c6         1 0OY       0.059500
      9 C2           0.9290    -0.6090     0.0680 ca         1 0OY      -0.187600
     10 C7           1.8390    -1.0780     1.0410 ca         1 0OY      -0.033000
     11 C6           3.1900    -0.6930     0.9960 ca         1 0OY      -0.187500
     12 C5           3.6500     0.1480    -0.0250 ca         1 0OY       0.159100
     13 O2           4.9620     0.5120    -0.0590 oh         1 0OY      -0.528100
     14 C4           2.7630     0.6010    -1.0120 ca         1 0OY      -0.187500
     15 C3           1.4100     0.2200    -0.9720 ca         1 0OY      -0.033000
     16 H1          -3.2070    -0.4240    -1.6900 h1         1 0OY       0.065450
     17 H2          -2.9230    -1.8250    -0.6570 h1         1 0OY       0.065450
     18 H3          -4.9310    -0.4770     0.0780 h1         1 0OY       0.054450
     19 H4          -3.6870    -0.5510     1.3520 h1         1 0OY       0.054450
     20 H5          -2.5620     2.8780     0.7200 h1         1 0OY       0.054450
     21 H6          -2.2930     1.4450     1.7400 h1         1 0OY       0.054450
     22 H7          -0.4850     1.6000     0.0840 h1         1 0OY       0.065450
     23 H8          -1.6320     1.7370    -1.2580 h1         1 0OY       0.065450
     24 H9           1.4970    -1.7330     1.8400 ha         1 0OY       0.125000
     25 H10          3.8810    -1.0510     1.7560 ha         1 0OY       0.125000
     26 H11          5.1020     1.0930    -0.8370 ho         1 0OY       0.468000
     27 H12          3.1140     1.2410    -1.8180 ha         1 0OY       0.125000
     28 H13          0.7440     0.5580    -1.7640 ha         1 0OY       0.125000
@<TRIPOS>BOND
     1     1     2 2   
     2     2     3 1   
     3     2     9 1   
     4     3     4 1   
     5     3     8 1   
     6     4     5 1   
     7     4    16 1   
     8     4    17 1   
     9     5     6 1   
    10     5    18 1   
    11     5    19 1   
    12     6     7 1   
    13     7     8 1   
    14     7    20 1   
    15     7    21 1   
    16     8    22 1   
    17     8    23 1   
    18     9    10 ar  
    19     9    15 ar  
    20    10    11 ar  
    21    10    24 1   
    22    11    12 ar  
    23    11    25 1   
    24    12    13 1   
    25    12    14 ar  
    26    13    26 1   
    27    14    15 ar  
    28    14    27 1   
    29    15    28 1   
@<TRIPOS>SUBSTRUCTURE
     1 0OY         1 TEMP              0 ****  ****    0 ROOT
