@<TRIPOS>MOLECULE
0OY
   28    29     1     0     0
SMALL
bcc


@<TRIPOS>ATOM
      1 O1          -0.7430    -2.2630     0.1770 o          1 0OY      -0.596100
      2 C1          -0.5330    -1.0800    -0.0610 c          1 0OY       0.691700
      3 N           -1.5190    -0.2220    -0.4080 n          1 0OY      -0.477800
      4 C11         -2.8740    -0.7010    -0.6260 c6         1 0OY       0.059500
      5 C10         -3.8060    -0.1530     0.4410 c6         1 0OY       0.106400
      6 O3          -3.7540     1.2560     0.4880 os         1 0OY      -0.397600
      7 C9          -2.4460     1.7110     0.7440 c6         1 0OY       0.106400
      8 C8          -1.4560     1.2280    -0.3060 c6         1 0OY       0.059500
      9 C2           0.8660    -0.5620    -0.0210 ca         1 0OY      -0.187600
     10 C7           1.7020    -0.9590     1.0210 ca         1 0OY      -0.051000
     11 C6           3.0310    -0.5800     1.0530 ca         1 0OY      -0.205500
     12 C5           3.5630     0.1820     0.0120 ca         1 0OY       0.159100
     13 O2           4.8630     0.5130     0.0790 oh         1 0OY      -0.489100
     14 C4           2.7430     0.5620    -1.0480 ca         1 0OY      -0.205500
     15 C3           1.4070     0.1960    -1.0550 ca         1 0OY      -0.051000
     16 H1          -3.2040    -0.3660    -1.6140 h1         1 0OY       0.065450
     17 H2          -2.8930    -1.7880    -0.6180 h1         1 0OY       0.065450
     18 H3          -4.8350    -0.4360     0.2160 h1         1 0OY       0.054450
     19 H4          -3.5410    -0.5850     1.4160 h1         1 0OY       0.054450
     20 H5          -2.4720     2.8020     0.7460 h1         1 0OY       0.054450
     21 H6          -2.1070     1.3790     1.7360 h1         1 0OY       0.054450
     22 H7          -0.4600     1.5570    -0.0220 h1         1 0OY       0.065450
     23 H8          -1.6920     1.6710    -1.2790 h1         1 0OY       0.065450
     24 H9           1.3100    -1.5630     1.8290 ha         1 0OY       0.143000
     25 H10          3.6660    -0.8820     1.8770 ha         1 0OY       0.143000
     26 H11          5.1210     1.0310    -0.6920 ho         1 0OY       0.429000
     27 H12          3.1460     1.1390    -1.8730 ha         1 0OY       0.143000
     28 H13          0.7920     0.4980    -1.8940 ha         1 0OY       0.143000
@<TRIPOS>BOND
     1     1     2 2   
     2     2     3 1   
     3     2     9 1   
     4     3     4 1   
     5     3     8 1   
     6     4     5 1   
     7     4    16 1   
     8     4    17 1   
     9     5     6 1   
    10     5    18 1   
    11     5    19 1   
    12     6     7 1   
    13     7     8 1   
    14     7    20 1   
    15     7    21 1   
    16     8    22 1   
    17     8    23 1   
    18     9    10 ar  
    19     9    15 ar  
    20    10    11 ar  
    21    10    24 1   
    22    11    12 ar  
    23    11    25 1   
    24    12    13 1   
    25    12    14 ar  
    26    13    26 1   
    27    14    15 ar  
    28    14    27 1   
    29    15    28 1   
@<TRIPOS>SUBSTRUCTURE
     1 0OY         1 TEMP              0 ****  ****    0 ROOT
