@<TRIPOS>MOLECULE
0P0
   36    35     1     0     0
SMALL
bcc


@<TRIPOS>ATOM
      1 N           -4.6450     2.1370    -0.6550 nz         1 0P0      -0.840600
      2 CA          -4.7120     0.7890    -0.0190 c3         1 0P0      -0.031500
      3 C           -5.8550     0.8420     1.0340 c          1 0P0       0.927600
      4 O           -6.6390     1.8070     0.9180 o          1 0P0      -0.764300
      5 CB          -3.3720     0.3520     0.5350 c3         1 0P0      -0.081400
      6 CG          -2.2850     0.2470    -0.5250 c3         1 0P0      -0.174400
      7 CD          -1.0180    -0.3950     0.0040 c          1 0P0       0.674100
      8 OE1         -1.0220    -1.1810     0.9390 o          1 0P0      -0.582100
      9 OXT         -5.8890    -0.0860     1.8480 o          1 0P0      -0.764300
     10 N1           0.0990    -0.0490    -0.6600 ns         1 0P0      -0.556900
     11 CA1          1.3990    -0.6030    -0.3940 c3         1 0P0       0.033700
     12 C1           2.4450     0.5090    -0.5070 c          1 0P0       0.640100
     13 O1           2.2980     1.4300    -1.3010 o          1 0P0      -0.667100
     14 CB1          1.7780    -1.7090    -1.3840 c3         1 0P0       0.017700
     15 SG           0.5680    -3.0690    -1.2930 sh         1 0P0      -0.394900
     16 N2           3.5070     0.3590     0.2760 ns         1 0P0      -0.511900
     17 CA2          4.6510     1.2360     0.2670 c3         1 0P0      -0.065000
     18 C2           5.7300     0.7320     1.2470 c          1 0P0       0.923600
     19 O2           5.4700    -0.3010     1.8930 o          1 0P0      -0.827300
     20 OXT1         6.7640     1.4190     1.2960 o          1 0P0      -0.827300
     21 H           -4.4220     2.1180    -1.6470 hn         1 0P0       0.438133
     22 H2          -5.5800     2.5500    -0.5160 hn         1 0P0       0.438133
     23 H3          -3.9770     2.7570    -0.1970 hn         1 0P0       0.438133
     24 HA          -5.0240     0.1050    -0.8130 hx         1 0P0       0.078700
     25 HB2         -3.0600     1.0340     1.3330 hc         1 0P0       0.098700
     26 HB3         -3.5240    -0.6200     0.9990 hc         1 0P0       0.098700
     27 HG2         -2.6360    -0.3740    -1.3570 hc         1 0P0       0.042200
     28 HG3         -2.0470     1.2220    -0.9570 hc         1 0P0       0.042200
     29 H1           0.0350     0.6080    -1.4230 hn         1 0P0       0.323500
     30 HA1          1.3980    -1.0140     0.6170 h1         1 0P0       0.106700
     31 HB21         1.8020    -1.3080    -2.3980 h1         1 0P0       0.072200
     32 HB31         2.7690    -2.0910    -1.1410 h1         1 0P0       0.072200
     33 HG           1.1360    -3.8350    -2.2300 hs         1 0P0       0.193800
     34 H4           3.5750    -0.4110     0.9270 hn         1 0P0       0.349500
     35 HA2          5.0800     1.3030    -0.7370 h1         1 0P0       0.039200
     36 HA3          4.3620     2.2530     0.5510 h1         1 0P0       0.039200
@<TRIPOS>BOND
     1     1     2 1   
     2     1    21 1   
     3     1    22 1   
     4     1    23 1   
     5     2     3 1   
     6     2     5 1   
     7     2    24 1   
     8     3     4 1   
     9     3     9 1   
    10     5     6 1   
    11     5    25 1   
    12     5    26 1   
    13     6     7 1   
    14     6    27 1   
    15     6    28 1   
    16     7     8 2   
    17     7    10 1   
    18    10    11 1   
    19    10    29 1   
    20    11    12 1   
    21    11    14 1   
    22    11    30 1   
    23    12    13 2   
    24    12    16 1   
    25    14    15 1   
    26    14    31 1   
    27    14    32 1   
    28    15    33 1   
    29    16    17 1   
    30    16    34 1   
    31    17    18 1   
    32    17    35 1   
    33    17    36 1   
    34    18    19 1   
    35    18    20 1   
@<TRIPOS>SUBSTRUCTURE
     1 0P0         1 TEMP              0 ****  ****    0 ROOT
