@<TRIPOS>MOLECULE
0P1
   81    82     1     0     0
SMALL
No Charge or Current Charge


@<TRIPOS>ATOM
      1 C1          15.5000     5.4320    20.2520 c          1 0P1       0.642100
      2 O1          15.4800     5.0680    21.4170 o          1 0P1      -0.538000
      3 O2          14.5140     5.2430    19.3320 os         1 0P1      -0.456100
      4 C2          13.3830     4.4320    19.7010 c3         1 0P1       0.231900
      5 C3          13.8040     2.9640    19.7400 ca         1 0P1      -0.121300
      6 C4          13.7680     2.2400    20.9490 ca         1 0P1      -0.080000
      7 C5          14.1560     0.8890    20.9780 ca         1 0P1      -0.120000
      8 C6          14.5820     0.2530    19.8010 ca         1 0P1      -0.105000
      9 C7          14.6190     0.9690    18.5920 ca         1 0P1      -0.120000
     10 C8          14.2310     2.3190    18.5620 ca         1 0P1      -0.080000
     11 N           16.4990     6.1640    19.6750 ns         1 0P1      -0.482900
     12 CA          17.7440     6.5870    20.3460 c3         1 0P1       0.047700
     13 C           18.4230     7.7440    19.5530 c          1 0P1       0.587100
     14 O           18.0530     8.1010    18.4410 o          1 0P1      -0.589100
     15 CB          18.6980     5.3840    20.5440 c3         1 0P1      -0.110100
     16 N1          19.4850     8.3460    20.1960 ns         1 0P1      -0.486900
     17 CA1         20.2960     9.4610    19.6590 c3         1 0P1       0.028700
     18 C9          21.6620     9.5370    20.4080 c          1 0P1       0.573100
     19 O3          21.9760     8.7510    21.2950 o          1 0P1      -0.637100
     20 CB1         19.5100    10.7960    19.6960 c3         1 0P1      -0.095100
     21 CA2         23.8570    10.8470    20.5610 c3         1 0P1      -0.235300
     22 CB2         24.9140    11.0060    19.4310 c3         1 0P1      -0.064400
     23 CG          25.0080     9.8240    18.4230 c3         1 0P1      -0.059700
     24 CD1         26.0120    10.1420    17.2920 c3         1 0P1      -0.085100
     25 CD2         25.3600     8.4810    19.1070 c3         1 0P1      -0.085100
     26 N2          22.5050    10.5550    19.9950 ns         1 0P1      -0.439900
     27 P           23.8750    12.2480    21.8090 p5         1 0P1       1.391400
     28 O11         25.2130    12.9130    21.8540 o          1 0P1      -0.811000
     29 O21         22.7650    13.2060    21.5190 o          1 0P1      -0.811000
     30 CA3         23.5940    12.0210    24.4580 c3         1 0P1       0.204300
     31 CB3         22.1830    12.6170    24.7320 c3         1 0P1      -0.034100
     32 CG1         21.0820    11.5610    24.8090 ca         1 0P1      -0.061300
     33 CD11        20.7160    11.0070    26.0520 ca         1 0P1      -0.091000
     34 CD21        20.4210    11.1330    23.6410 ca         1 0P1      -0.091000
     35 CE1         19.7050    10.0320    26.1240 ca         1 0P1      -0.114000
     36 CE2         19.4090    10.1590    23.7140 ca         1 0P1      -0.114000
     37 CZ          19.0520     9.6070    24.9550 ca         1 0P1      -0.118000
     38 CC          24.0400    11.0450    25.5890 c          1 0P1       0.573100
     39 CS          24.5370    10.9070    27.9490 c3         1 0P1       0.155900
     40 OP          23.6170    11.3910    23.1530 os         1 0P1      -0.571400
     41 H21         12.9710     4.7440    20.6700 h1         1 0P1       0.065700
     42 H22         12.5840     4.5450    18.9570 h1         1 0P1       0.065700
     43 H41         13.4430     2.7240    21.8680 ha         1 0P1       0.119000
     44 H51         14.1270     0.3360    21.9150 ha         1 0P1       0.109000
     45 H61         14.8830    -0.7930    19.8240 ha         1 0P1       0.106000
     46 H71         14.9490     0.4770    17.6800 ha         1 0P1       0.109000
     47 H81         14.2640     2.8680    17.6220 ha         1 0P1       0.119000
     48 H           16.3530     6.4290    18.7080 hn         1 0P1       0.331500
     49 HA          17.4820     6.9910    21.3330 h1         1 0P1       0.067700
     50 HB1         19.6050     5.6850    21.0830 hc         1 0P1       0.055033
     51 HB2         18.2130     4.5910    21.1250 hc         1 0P1       0.055033
     52 HB3         18.9980     4.9650    19.5760 hc         1 0P1       0.055033
     53 H1          19.7520     7.9650    21.0980 hn         1 0P1       0.312500
     54 HA1         20.5350     9.2360    18.6110 h1         1 0P1       0.082700
     55 HB11        20.0880    11.6100    19.2430 hc         1 0P1       0.044033
     56 HB21        18.5700    10.7110    19.1400 hc         1 0P1       0.044033
     57 HB31        19.2700    11.0800    20.7270 hc         1 0P1       0.044033
     58 HA2         24.1630    10.0050    21.1910 h1         1 0P1       0.100700
     59 HB12        24.6920    11.9270    18.8770 hc         1 0P1       0.049700
     60 HB22        25.9020    11.1530    19.8870 hc         1 0P1       0.049700
     61 HG          24.0270     9.7010    17.9470 hc         1 0P1       0.046700
     62 HD11        26.0350     9.3320    16.5530 hc         1 0P1       0.024700
     63 HD12        25.7310    11.0650    16.7710 hc         1 0P1       0.024700
     64 HD13        27.0260    10.2690    17.6930 hc         1 0P1       0.024700
     65 HD21        25.4470     7.6800    18.3630 hc         1 0P1       0.024700
     66 HD22        26.3140     8.5540    19.6430 hc         1 0P1       0.024700
     67 HD23        24.5840     8.1850    19.8210 hc         1 0P1       0.024700
     68 HN2         22.1430    11.1700    19.2750 hn         1 0P1       0.328500
     69 HA3         24.3120    12.8510    24.4860 h1         1 0P1       0.060700
     70 HB13        22.2200    13.1800    25.6730 hc         1 0P1       0.049200
     71 HB23        21.9380    13.3640    23.9700 hc         1 0P1       0.049200
     72 HD1         21.2140    11.3290    26.9630 ha         1 0P1       0.112500
     73 HD2         20.6940    11.5540    22.6780 ha         1 0P1       0.112500
     74 HE1         19.4290     9.6070    27.0860 ha         1 0P1       0.098500
     75 HE2         18.9020     9.8310    22.8110 ha         1 0P1       0.098500
     76 HZ          18.2700     8.8540    25.0120 ha         1 0P1       0.096000
     77 HS1         24.5750    11.5420    28.8440 h1         1 0P1       0.035700
     78 HS2         23.8220    10.0960    28.1370 h1         1 0P1       0.035700
     79 HS3         25.5330    10.4690    27.8000 h1         1 0P1       0.035700
     80 OS          24.1410    11.6830    26.8040 os         1 0P1      -0.452100
     81 O4          24.2940     9.8550    25.4240 o          1 0P1      -0.469000
@<TRIPOS>BOND
     1     1     2 2   
     2     1     3 1   
     3     1    11 1   
     4     3     4 1   
     5     4     5 1   
     6     4    41 1   
     7     4    42 1   
     8     5     6 ar  
     9     5    10 ar  
    10     6     7 ar  
    11     6    43 1   
    12     7     8 ar  
    13     7    44 1   
    14     8     9 ar  
    15     8    45 1   
    16     9    10 ar  
    17     9    46 1   
    18    10    47 1   
    19    11    12 1   
    20    11    48 1   
    21    12    13 1   
    22    12    15 1   
    23    12    49 1   
    24    13    14 2   
    25    13    16 1   
    26    15    50 1   
    27    15    51 1   
    28    15    52 1   
    29    16    17 1   
    30    16    53 1   
    31    17    18 1   
    32    17    20 1   
    33    17    54 1   
    34    18    19 2   
    35    18    26 1   
    36    20    55 1   
    37    20    56 1   
    38    20    57 1   
    39    21    22 1   
    40    21    26 1   
    41    21    27 1   
    42    21    58 1   
    43    22    23 1   
    44    22    59 1   
    45    22    60 1   
    46    23    24 1   
    47    23    25 1   
    48    23    61 1   
    49    24    62 1   
    50    24    63 1   
    51    24    64 1   
    52    25    65 1   
    53    25    66 1   
    54    25    67 1   
    55    26    68 1   
    56    27    28 1   
    57    27    29 1   
    58    27    40 1   
    59    30    31 1   
    60    30    38 1   
    61    30    40 1   
    62    30    69 1   
    63    31    32 1   
    64    31    70 1   
    65    31    71 1   
    66    32    33 ar  
    67    32    34 ar  
    68    33    35 ar  
    69    33    72 1   
    70    34    36 ar  
    71    34    73 1   
    72    35    37 ar  
    73    35    74 1   
    74    36    37 ar  
    75    36    75 1   
    76    37    76 1   
    77    38    80 1   
    78    38    81 2   
    79    39    77 1   
    80    39    78 1   
    81    39    79 1   
    82    39    80 1   
@<TRIPOS>SUBSTRUCTURE
     1 0P1         1 TEMP              0 ****  ****    0 ROOT
