@<TRIPOS>MOLECULE
0P1
   81    82     1     0     0
SMALL
bcc


@<TRIPOS>ATOM
      1 C1          17.3940     5.1010    18.5980 c          1 0P1       0.758100
      2 O1          16.5030     5.6420    19.2180 o          1 0P1      -0.587000
      3 O2          17.2710     4.6350    17.3490 os         1 0P1      -0.432900
      4 C2          15.9800     4.7300    16.7450 c3         1 0P1       0.208700
      5 C3          15.0130     3.7270    17.3080 ca         1 0P1      -0.121300
      6 C4          13.8370     4.1420    17.9210 ca         1 0P1      -0.098000
      7 C5          12.9360     3.2130    18.4250 ca         1 0P1      -0.138000
      8 C6          13.2130     1.8560    18.3340 ca         1 0P1      -0.123000
      9 C7          14.3890     1.4330    17.7270 ca         1 0P1      -0.138000
     10 C8          15.2820     2.3630    17.2160 ca         1 0P1      -0.098000
     11 N           18.6320     4.8820    19.0790 ns         1 0P1      -0.549900
     12 CA          19.0230     5.4010    20.3620 c3         1 0P1       0.047700
     13 C           18.9860     6.9310    20.3760 c          1 0P1       0.654100
     14 O           19.1770     7.5920    19.3700 o          1 0P1      -0.589100
     15 CB          20.4420     4.9470    20.6930 c3         1 0P1      -0.110100
     16 N1          18.7820     7.4660    21.5930 ns         1 0P1      -0.553900
     17 CA1         18.9800     8.8730    21.8790 c3         1 0P1       0.028700
     18 C9          20.4840     9.1310    22.0350 c          1 0P1       0.640100
     19 O3          21.1140     8.5780    22.9270 o          1 0P1      -0.637100
     20 CB1         18.2330     9.2520    23.1460 c3         1 0P1      -0.095100
     21 CA2         22.4180    10.2990    21.0110 c3         1 0P1      -0.077500
     22 CB2         23.0210     9.7090    19.7350 c3         1 0P1      -0.064400
     23 CG          23.0070     8.1820    19.6360 c3         1 0P1      -0.059700
     24 CD1         23.4760     7.7530    18.2500 c3         1 0P1      -0.085100
     25 CD2         23.8640     7.5260    20.7130 c3         1 0P1      -0.085100
     26 N2          21.0130     9.9650    21.1330 ns         1 0P1      -0.506900
     27 P           22.5900    12.1380    21.0090 p5         1 0P1       1.233600
     28 O11         24.0350    12.5370    20.8780 o          1 0P1      -0.811000
     29 O21         21.5470    12.6890    20.0760 o          1 0P1      -0.811000
     30 CA3         22.9010    13.2410    23.4030 c3         1 0P1       0.181100
     31 CB3         22.0870    13.6660    24.6360 c3         1 0P1      -0.034100
     32 CG1         21.7100    12.5320    25.5460 ca         1 0P1      -0.061300
     33 CD11        22.4670    12.2590    26.6840 ca         1 0P1      -0.109000
     34 CD21        20.6140    11.7180    25.2680 ca         1 0P1      -0.109000
     35 CE1         22.1440    11.1990    27.5210 ca         1 0P1      -0.132000
     36 CE2         20.2860    10.6590    26.1030 ca         1 0P1      -0.132000
     37 CZ          21.0510    10.3940    27.2320 ca         1 0P1      -0.136000
     38 CC          24.1330    12.4740    23.8560 c          1 0P1       0.622100
     39 CS          26.2260    12.7330    24.9010 c3         1 0P1       0.132700
     40 OP          22.0940    12.4610    22.5710 os         1 0P1      -0.548200
     41 H21         15.5840     5.7440    16.8320 h1         1 0P1       0.065700
     42 H22         16.1630     4.5350    15.6890 h1         1 0P1       0.065700
     43 H41         13.6220     5.2000    18.0030 ha         1 0P1       0.137000
     44 H51         12.0220     3.5500    18.8980 ha         1 0P1       0.127000
     45 H61         12.5140     1.1300    18.7300 ha         1 0P1       0.124000
     46 H71         14.6080     0.3760    17.6480 ha         1 0P1       0.127000
     47 H81         16.1940     2.0220    16.7380 ha         1 0P1       0.137000
     48 H           19.3450     4.5220    18.4630 hn         1 0P1       0.331500
     49 HA          18.3460     5.0160    21.1310 h1         1 0P1       0.067700
     50 HB1         20.7380     5.3050    21.6780 hc         1 0P1       0.055033
     51 HB2         20.5020     3.8590    20.6980 hc         1 0P1       0.055033
     52 HB3         21.1570     5.3320    19.9630 hc         1 0P1       0.055033
     53 H1          18.6860     6.8470    22.3840 hn         1 0P1       0.312500
     54 HA1         18.5760     9.4480    21.0440 h1         1 0P1       0.082700
     55 HB11        18.3750    10.3080    23.3710 hc         1 0P1       0.044033
     56 HB21        17.1650     9.0740    23.0230 hc         1 0P1       0.044033
     57 HB31        18.5830     8.6710    24.0000 hc         1 0P1       0.044033
     58 HA2         22.9360     9.9130    21.8880 h1         1 0P1       0.100700
     59 HB12        22.4890    10.1260    18.8730 hc         1 0P1       0.049700
     60 HB22        24.0560    10.0550    19.6510 hc         1 0P1       0.049700
     61 HG          21.9760     7.8350    19.7580 hc         1 0P1       0.046700
     62 HD11        23.4490     6.6670    18.1420 hc         1 0P1       0.024700
     63 HD12        22.8480     8.1800    17.4650 hc         1 0P1       0.024700
     64 HD13        24.5030     8.0780    18.0670 hc         1 0P1       0.024700
     65 HD21        23.8570     6.4400    20.6050 hc         1 0P1       0.024700
     66 HD22        24.9020     7.8590    20.6390 hc         1 0P1       0.024700
     67 HD23        23.5090     7.7550    21.7170 hc         1 0P1       0.024700
     68 HN2         20.4030    10.3650    20.4360 hn         1 0P1       0.328500
     69 HA3         23.2320    14.1590    22.9050 h1         1 0P1       0.060700
     70 HB13        22.6660    14.4090    25.1890 hc         1 0P1       0.049200
     71 HB23        21.1950    14.1780    24.2700 hc         1 0P1       0.049200
     72 HD1         23.3180    12.8880    26.9240 ha         1 0P1       0.130500
     73 HD2         20.0050    11.9170    24.3950 ha         1 0P1       0.130500
     74 HE1         22.7450    11.0070    28.4010 ha         1 0P1       0.116500
     75 HE2         19.4270    10.0410    25.8760 ha         1 0P1       0.116500
     76 HZ          20.7940     9.5690    27.8840 ha         1 0P1       0.114000
     77 HS1         26.8340    13.5670    25.2390 h1         1 0P1       0.035700
     78 HS2         25.9710    12.1020    25.7520 h1         1 0P1       0.035700
     79 HS3         26.7910    12.1460    24.1760 h1         1 0P1       0.035700
     80 OS          25.0600    13.3070    24.3120 os         1 0P1      -0.428900
     81 O4          24.2400    11.2760    23.8710 o          1 0P1      -0.518000
@<TRIPOS>BOND
     1     1     2 2   
     2     1     3 1   
     3     1    11 1   
     4     3     4 1   
     5     4     5 1   
     6     4    41 1   
     7     4    42 1   
     8     5     6 ar  
     9     5    10 ar  
    10     6     7 ar  
    11     6    43 1   
    12     7     8 ar  
    13     7    44 1   
    14     8     9 ar  
    15     8    45 1   
    16     9    10 ar  
    17     9    46 1   
    18    10    47 1   
    19    11    12 1   
    20    11    48 1   
    21    12    13 1   
    22    12    15 1   
    23    12    49 1   
    24    13    14 2   
    25    13    16 1   
    26    15    50 1   
    27    15    51 1   
    28    15    52 1   
    29    16    17 1   
    30    16    53 1   
    31    17    18 1   
    32    17    20 1   
    33    17    54 1   
    34    18    19 2   
    35    18    26 1   
    36    20    55 1   
    37    20    56 1   
    38    20    57 1   
    39    21    22 1   
    40    21    26 1   
    41    21    27 1   
    42    21    58 1   
    43    22    23 1   
    44    22    59 1   
    45    22    60 1   
    46    23    24 1   
    47    23    25 1   
    48    23    61 1   
    49    24    62 1   
    50    24    63 1   
    51    24    64 1   
    52    25    65 1   
    53    25    66 1   
    54    25    67 1   
    55    26    68 1   
    56    27    28 1   
    57    27    29 1   
    58    27    40 1   
    59    30    31 1   
    60    30    38 1   
    61    30    40 1   
    62    30    69 1   
    63    31    32 1   
    64    31    70 1   
    65    31    71 1   
    66    32    33 ar  
    67    32    34 ar  
    68    33    35 ar  
    69    33    72 1   
    70    34    36 ar  
    71    34    73 1   
    72    35    37 ar  
    73    35    74 1   
    74    36    37 ar  
    75    36    75 1   
    76    37    76 1   
    77    38    80 1   
    78    38    81 2   
    79    39    77 1   
    80    39    78 1   
    81    39    79 1   
    82    39    80 1   
@<TRIPOS>SUBSTRUCTURE
     1 0P1         1 TEMP              0 ****  ****    0 ROOT
