@<TRIPOS>MOLECULE
0P4
   41    43     1     0     0
SMALL
No Charge or Current Charge


@<TRIPOS>ATOM
      1 CAH          4.4370    -1.2110     0.2500 ca         1 0P4      -0.092500
      2 CAR          5.6690    -1.2490    -0.4250 ca         1 0P4       0.123500
      3 Cl1          6.2780    -2.7740    -1.0540 cl         1 0P4      -0.193500
      4 CAG          6.4150    -0.0730    -0.5990 ca         1 0P4      -0.095000
      5 CAS          5.9250     1.1430    -0.0970 ca         1 0P4       0.123500
      6 Cl2          6.8570     2.6190    -0.3140 cl         1 0P4      -0.193500
      7 CAI          4.6940     1.1850     0.5780 ca         1 0P4      -0.092500
      8 CAT          3.9410     0.0070     0.7570 ca         1 0P4      -0.073300
      9 CAM          2.6060     0.0440     1.4870 c3         1 0P4       0.206100
     10 NAO          1.4930     0.0150     0.5210 n7         1 0P4      -0.865400
     11 CAK          0.1460     0.0650     1.1150 c3         1 0P4       0.164800
     12 CAJ         -0.9230    -0.0000     0.0100 c3         1 0P4      -0.094400
     13 CAL         -2.3530     0.0330     0.5770 c3         1 0P4       0.219800
     14 NAP         -3.3400    -0.0280    -0.5040 nu         1 0P4      -0.889400
     15 CAU         -4.6850    -0.0190    -0.3800 cc         1 0P4       0.649700
     16 NAQ         -5.3630     0.0930     0.8150 na         1 0P4      -0.351600
     17 CAW         -6.6870     0.0600     0.5020 ca         1 0P4      -0.088200
     18 CAF         -7.8160     0.1360     1.3260 ca         1 0P4      -0.111000
     19 CAD         -9.0790     0.0740     0.7010 ca         1 0P4      -0.109000
     20 CAC         -9.1750    -0.0610    -0.7060 ca         1 0P4      -0.126000
     21 CAE         -8.0080    -0.1340    -1.5000 ca         1 0P4      -0.069000
     22 CAV         -6.7620    -0.0700    -0.8590 ca         1 0P4       0.106400
     23 NAN         -5.4930    -0.1210    -1.4350 nd         1 0P4      -0.646100
     24 H1           3.8640    -2.1270     0.3760 ha         1 0P4       0.139500
     25 H2           7.3670    -0.1030    -1.1210 ha         1 0P4       0.146000
     26 H3           4.3250     2.1340     0.9610 ha         1 0P4       0.139500
     27 H4           2.5470    -0.8170     2.1670 h1         1 0P4       0.042200
     28 H5           2.5560     0.9520     2.1050 h1         1 0P4       0.042200
     29 H6           1.6000     0.8230    -0.1040 hn         1 0P4       0.416000
     30 H8           0.0020    -0.7800     1.8030 h1         1 0P4       0.031700
     31 H9           0.0150     0.9920     1.6910 h1         1 0P4       0.031700
     32 H10         -0.7860     0.8450    -0.6760 hc         1 0P4       0.060700
     33 H11         -0.7850    -0.9210    -0.5700 hc         1 0P4       0.060700
     34 H12         -2.4940    -0.8180     1.2570 h1         1 0P4       0.034700
     35 H13         -2.4920     0.9570     1.1550 h1         1 0P4       0.034700
     36 H14         -3.0260    -0.1420    -1.4650 hn         1 0P4       0.504000
     37 H15         -4.9420     0.1820     1.7260 hn         1 0P4       0.352000
     38 H16         -7.7250     0.2390     2.4050 ha         1 0P4       0.112000
     39 H17         -9.9840     0.1290     1.3030 ha         1 0P4       0.111000
     40 H18        -10.1530    -0.1080    -1.1790 ha         1 0P4       0.111000
     41 H19         -8.0710    -0.2370    -2.5800 ha         1 0P4       0.126000
@<TRIPOS>BOND
     1     1     2 ar  
     2     1     8 ar  
     3     1    24 1   
     4     2     3 1   
     5     2     4 ar  
     6     4     5 ar  
     7     4    25 1   
     8     5     6 1   
     9     5     7 ar  
    10     7     8 ar  
    11     7    26 1   
    12     8     9 1   
    13     9    10 1   
    14     9    27 1   
    15     9    28 1   
    16    10    11 1   
    17    10    29 1   
    18    11    12 1   
    19    11    30 1   
    20    11    31 1   
    21    12    13 1   
    22    12    32 1   
    23    12    33 1   
    24    13    14 1   
    25    13    34 1   
    26    13    35 1   
    27    14    15 1   
    28    14    36 1   
    29    15    16 1   
    30    15    23 2   
    31    16    17 1   
    32    16    37 1   
    33    17    18 ar  
    34    17    22 ar  
    35    18    19 ar  
    36    18    38 1   
    37    19    20 ar  
    38    19    39 1   
    39    20    21 ar  
    40    20    40 1   
    41    21    22 ar  
    42    21    41 1   
    43    22    23 1   
@<TRIPOS>SUBSTRUCTURE
     1 0P4         1 TEMP              0 ****  ****    0 ROOT
