@<TRIPOS>MOLECULE
0P4
   41    43     1     0     0
SMALL
abcg2


@<TRIPOS>ATOM
      1 CAH          4.0810    -0.8020    -0.2500 ca         1 0P4      -0.092500
      2 CAR          5.3580    -0.9490    -0.7610 ca         1 0P4       0.123500
      3 CL1          5.6490    -2.1330    -1.9920 cl         1 0P4      -0.193500
      4 CAG          6.4210    -0.1750    -0.3190 ca         1 0P4      -0.095000
      5 CAS          6.1620     0.7640     0.6640 ca         1 0P4       0.123500
      6 CL2          7.4610     1.7580     1.2350 cl         1 0P4      -0.193500
      7 CAI          4.8940     0.9370     1.1950 ca         1 0P4      -0.092500
      8 CAT          3.8450     0.1470     0.7410 ca         1 0P4      -0.073300
      9 CAM          2.4700     0.2970     1.3370 c3         1 0P4       0.206100
     10 NAO          1.4360     0.1760     0.3320 n7         1 0P4      -0.865400
     11 CAK          0.0980     0.1910     0.8900 c3         1 0P4       0.164800
     12 CAJ         -0.9410     0.0140    -0.2050 c3         1 0P4      -0.094400
     13 CAL         -2.3540     0.0160     0.3540 c3         1 0P4       0.219800
     14 NAP         -3.3110    -0.2020    -0.7120 nu         1 0P4      -0.889400
     15 CAU         -4.6440    -0.2070    -0.5000 cc         1 0P4       0.649700
     16 NAQ         -5.2060     0.3280     0.6200 na         1 0P4      -0.351600
     17 CAW         -6.5710     0.1970     0.4910 ca         1 0P4      -0.088200
     18 CAF         -7.6260     0.5610     1.3080 ca         1 0P4      -0.111000
     19 CAD         -8.9060     0.2650     0.8500 ca         1 0P4      -0.109000
     20 CAC         -9.1050    -0.3700    -0.3780 ca         1 0P4      -0.126000
     21 CAE         -8.0370    -0.7300    -1.1900 ca         1 0P4      -0.069000
     22 CAV         -6.7480    -0.4430    -0.7500 ca         1 0P4       0.106400
     23 NAN         -5.5320    -0.6830    -1.3430 nd         1 0P4      -0.646100
     24 H1           3.2670    -1.4120    -0.6170 ha         1 0P4       0.139500
     25 H2           7.4130    -0.2980    -0.7300 ha         1 0P4       0.146000
     26 H3           4.7210     1.6870     1.9570 ha         1 0P4       0.139500
     27 H4           2.3210    -0.5010     2.0710 h1         1 0P4       0.042200
     28 H5           2.4240     1.2400     1.9030 h1         1 0P4       0.042200
     29 H6           1.5290     0.9400    -0.3290 hn         1 0P4       0.416000
     30 H8           0.0170    -0.6340     1.6040 h1         1 0P4       0.031700
     31 H9          -0.1150     1.1120     1.4560 h1         1 0P4       0.031700
     32 H10         -0.8450     0.8150    -0.9430 hc         1 0P4       0.060700
     33 H11         -0.7520    -0.9300    -0.7250 hc         1 0P4       0.060700
     34 H12         -2.4460    -0.7470     1.1370 h1         1 0P4       0.034700
     35 H13         -2.5510     0.9850     0.8210 h1         1 0P4       0.034700
     36 H14         -3.0160    -0.8070    -1.4640 hn         1 0P4       0.504000
     37 H15         -4.7220     0.7480     1.3970 hn         1 0P4       0.352000
     38 H16         -7.4680     1.0550     2.2570 ha         1 0P4       0.112000
     39 H17         -9.7620     0.5320     1.4570 ha         1 0P4       0.111000
     40 H18        -10.1140    -0.5830    -0.7050 ha         1 0P4       0.111000
     41 H19         -8.2010    -1.2230    -2.1400 ha         1 0P4       0.126000
@<TRIPOS>BOND
     1     1     2 ar  
     2     1     8 ar  
     3     1    24 1   
     4     2     3 1   
     5     2     4 ar  
     6     4     5 ar  
     7     4    25 1   
     8     5     6 1   
     9     5     7 ar  
    10     7     8 ar  
    11     7    26 1   
    12     8     9 1   
    13     9    10 1   
    14     9    27 1   
    15     9    28 1   
    16    10    11 1   
    17    10    29 1   
    18    11    12 1   
    19    11    30 1   
    20    11    31 1   
    21    12    13 1   
    22    12    32 1   
    23    12    33 1   
    24    13    14 1   
    25    13    34 1   
    26    13    35 1   
    27    14    15 1   
    28    14    36 1   
    29    15    16 1   
    30    15    23 2   
    31    16    17 1   
    32    16    37 1   
    33    17    18 ar  
    34    17    22 ar  
    35    18    19 ar  
    36    18    38 1   
    37    19    20 ar  
    38    19    39 1   
    39    20    21 ar  
    40    20    40 1   
    41    21    22 ar  
    42    21    41 1   
    43    22    23 1   
@<TRIPOS>SUBSTRUCTURE
     1 0P4         1 TEMP              0 ****  ****    0 ROOT
