@<TRIPOS>MOLECULE
0P5
   56    60     1     0     0
SMALL
abcg2


@<TRIPOS>ATOM
      1 CL1         -3.1910    -1.8640    -2.3980 cl         1 0P5      -0.175000
      2 CAY         -3.8350    -2.0020    -0.8040 ca         1 0P5       0.152000
      3 CAJ         -5.2010    -1.9770    -0.6130 ca         1 0P5      -0.139000
      4 CAZ         -5.7240    -2.1010     0.6760 ca         1 0P5       0.151100
      5 OAV         -7.0640    -2.0710     0.7700 os         1 0P5      -0.336100
      6 CAA         -7.6530    -2.2110     2.0480 c3         1 0P5       0.146900
      7 CAF         -4.8580    -2.2480     1.7570 ca         1 0P5      -0.194000
      8 CAG         -3.4860    -2.2680     1.5410 ca         1 0P5      -0.060000
      9 CBD         -2.9640    -2.1520     0.2690 ca         1 0P5       0.080100
     10 OAW         -1.6110    -2.2470     0.0680 os         1 0P5      -0.349400
     11 C4          -0.9070    -1.1120    -0.1140 ca         1 0P5       0.409300
     12 C5           0.4440    -1.2500    -0.3840 ca         1 0P5      -0.359000
     13 N3          -1.5410     0.0310    -0.0190 nb         1 0P5      -0.341000
     14 C2          -0.7990     1.1250    -0.2230 ca         1 0P5       0.460900
     15 N           -1.4320     2.3210    -0.1410 nh         1 0P5      -0.775300
     16 CA          -0.7230     3.5430    -0.4340 c6         1 0P5       0.140800
     17 CAM         -2.8700     2.4320    -0.0510 c6         1 0P5       0.210800
     18 CAL         -3.2200     3.4280     1.0300 c6         1 0P5       0.098000
     19 NAS         -2.5100     4.6700     0.8040 ns         1 0P5      -0.507900
     20 C           -1.3510     4.7940     0.1480 c          1 0P5       0.558000
     21 O           -0.7840     5.8670    -0.0090 o          1 0P5      -0.567000
     22 N1           0.5000     1.1380    -0.4890 nb         1 0P5      -0.343000
     23 C6           1.1280    -0.0410    -0.5540 ca         1 0P5       0.431900
     24 NAT          2.4600     0.0350    -0.7830 nu         1 0P5      -0.940100
     25 CAN          3.3110    -1.0840    -1.0920 c3         1 0P5       0.209500
     26 CBC          4.7040    -0.8370    -0.6180 cc         1 0P5       0.387800
     27 NAU          4.9600    -0.2300     0.5680 na         1 0P5      -0.303600
     28 CBG          6.3190    -0.2090     0.7300 ca         1 0P5      -0.076200
     29 CAI          7.1430     0.2820     1.7360 ca         1 0P5      -0.115000
     30 CAE          8.5060     0.1220     1.5540 ca         1 0P5      -0.090000
     31 CAD          9.0270    -0.5010     0.4100 ca         1 0P5      -0.135000
     32 CAH          8.1990    -0.9840    -0.5880 ca         1 0P5      -0.046000
     33 CBF          6.8220    -0.8360    -0.4230 ca         1 0P5       0.065400
     34 NAR          5.7840    -1.2100    -1.2450 nd         1 0P5      -0.568100
     35 H1          -5.8700    -1.8640    -1.4570 ha         1 0P5       0.145000
     36 H2          -7.3770    -1.3910     2.7160 h1         1 0P5       0.043700
     37 H3          -8.7290    -2.1910     1.8950 h1         1 0P5       0.043700
     38 H4          -7.3810    -3.1580     2.5210 h1         1 0P5       0.043700
     39 H5          -5.2260    -2.3470     2.7690 ha         1 0P5       0.124000
     40 H6          -2.8140    -2.3830     2.3810 ha         1 0P5       0.129000
     41 H7           0.9030    -2.2220    -0.4740 ha         1 0P5       0.149000
     42 H8           0.2910     3.4830    -0.0390 h1         1 0P5       0.085200
     43 H9          -0.6240     3.7050    -1.5150 h1         1 0P5       0.085200
     44 H10         -3.2890     2.7550    -1.0110 h1         1 0P5       0.073700
     45 H11         -3.2930     1.4610     0.1880 h1         1 0P5       0.073700
     46 H12         -4.2900     3.6310     1.0100 h1         1 0P5       0.051200
     47 H13         -2.9760     3.0160     2.0130 h1         1 0P5       0.051200
     48 H14         -2.8870     5.5110     1.2160 hn         1 0P5       0.319500
     49 H15          2.7810     0.9470    -1.0730 hn         1 0P5       0.504000
     50 H16          2.9360    -1.9750    -0.5850 h1         1 0P5       0.075700
     51 H17          3.3410    -1.3120    -2.1610 h1         1 0P5       0.075700
     52 H18          4.2670     0.1310     1.2060 hn         1 0P5       0.367000
     53 H19          6.7430     0.7620     2.6190 ha         1 0P5       0.119000
     54 H20          9.1870     0.4860     2.3140 ha         1 0P5       0.113000
     55 H21         10.1000    -0.6040     0.3090 ha         1 0P5       0.115000
     56 H22          8.6040    -1.4630    -1.4700 ha         1 0P5       0.129000
@<TRIPOS>BOND
     1     1     2 1   
     2     2     3 ar  
     3     2     9 ar  
     4     3     4 ar  
     5     3    35 1   
     6     4     5 1   
     7     4     7 ar  
     8     5     6 1   
     9     6    36 1   
    10     6    37 1   
    11     6    38 1   
    12     7     8 ar  
    13     7    39 1   
    14     8     9 ar  
    15     8    40 1   
    16     9    10 1   
    17    10    11 1   
    18    11    12 ar  
    19    11    13 ar  
    20    12    23 ar  
    21    12    41 1   
    22    13    14 ar  
    23    14    15 1   
    24    14    22 ar  
    25    15    16 1   
    26    15    17 1   
    27    16    20 1   
    28    16    42 1   
    29    16    43 1   
    30    17    18 1   
    31    17    44 1   
    32    17    45 1   
    33    18    19 1   
    34    18    46 1   
    35    18    47 1   
    36    19    20 1   
    37    19    48 1   
    38    20    21 2   
    39    22    23 ar  
    40    23    24 1   
    41    24    25 1   
    42    24    49 1   
    43    25    26 1   
    44    25    50 1   
    45    25    51 1   
    46    26    27 1   
    47    26    34 2   
    48    27    28 1   
    49    27    52 1   
    50    28    29 ar  
    51    28    33 ar  
    52    29    30 ar  
    53    29    53 1   
    54    30    31 ar  
    55    30    54 1   
    56    31    32 ar  
    57    31    55 1   
    58    32    33 ar  
    59    32    56 1   
    60    33    34 1   
@<TRIPOS>SUBSTRUCTURE
     1 0P5         1 TEMP              0 ****  ****    0 ROOT
