@<TRIPOS>MOLECULE
0P5
   56    60     1     0     0
SMALL
No Charge or Current Charge


@<TRIPOS>ATOM
      1 Cl1         -2.8700    -1.8480    -2.3300 cl         1 0P5      -0.175000
      2 CAY         -3.7990    -2.0790    -0.8470 ca         1 0P5       0.152000
      3 CAJ         -5.2020    -2.0510    -0.9120 ca         1 0P5      -0.139000
      4 CAZ         -5.9730    -2.2440     0.2450 ca         1 0P5       0.151100
      5 OAV         -7.3460    -2.2040     0.1180 os         1 0P5      -0.336100
      6 CAA         -8.2270    -2.3900     1.2400 c3         1 0P5       0.146900
      7 CAF         -5.3300    -2.4730     1.4820 ca         1 0P5      -0.194000
      8 CAG         -3.9250    -2.5020     1.5500 ca         1 0P5      -0.060000
      9 CBD         -3.1570    -2.2990     0.3910 ca         1 0P5       0.080100
     10 OAW         -1.7820    -2.3260     0.4880 os         1 0P5      -0.349400
     11 C4          -1.0220    -1.1830     0.3960 ca         1 0P5       0.409300
     12 C5           0.3630    -1.3210     0.2990 ca         1 0P5      -0.359000
     13 N3          -1.6010     0.0310     0.4120 nb         1 0P5      -0.341000
     14 C2          -0.7880     1.0950     0.3190 ca         1 0P5       0.460900
     15 N           -1.3930     2.3760     0.3270 nh         1 0P5      -0.775300
     16 CA          -0.6030     3.6230    -0.0310 c6         1 0P5       0.140800
     17 CAM         -2.8850     2.5570     0.3860 c6         1 0P5       0.210800
     18 CAL         -3.3050     3.9180     1.0140 c6         1 0P5       0.098000
     19 NAS         -2.5910     5.0670     0.4320 ns         1 0P5      -0.507900
     20 C           -1.3760     4.9680    -0.2040 c          1 0P5       0.558000
     21 O           -0.9310     5.9120    -0.8420 o          1 0P5      -0.567000
     22 N1           0.5530     1.0570     0.2190 nb         1 0P5      -0.343000
     23 C6           1.1130    -0.1530     0.2090 ca         1 0P5       0.431900
     24 NAT          2.4890    -0.1620     0.1120 nu         1 0P5      -0.940100
     25 CAN          3.3690    -1.3450    -0.1230 c3         1 0P5       0.209500
     26 CBC          4.8560    -1.0130    -0.1270 cc         1 0P5       0.387800
     27 NAU          5.5140    -0.4040     0.9410 na         1 0P5      -0.303600
     28 CBG          6.8170    -0.2600     0.5780 ca         1 0P5      -0.076200
     29 CAI          7.8960     0.2880     1.2810 ca         1 0P5      -0.115000
     30 CAE          9.1510     0.3020     0.6370 ca         1 0P5      -0.090000
     31 CAD          9.2870    -0.2240    -0.6710 ca         1 0P5      -0.135000
     32 CAH          8.1690    -0.7670    -1.3440 ca         1 0P5      -0.046000
     33 CBF          6.9320    -0.7700    -0.6830 ca         1 0P5       0.065400
     34 NAR          5.7100    -1.2490    -1.1490 nd         1 0P5      -0.568100
     35 H1          -5.6950    -1.8800    -1.8650 ha         1 0P5       0.145000
     36 H2          -8.0540    -1.6210     2.0030 h1         1 0P5       0.043700
     37 H3          -9.2730    -2.3190     0.9180 h1         1 0P5       0.043700
     38 H4          -8.0780    -3.3780     1.6940 h1         1 0P5       0.043700
     39 H5          -5.8980    -2.6290     2.3940 ha         1 0P5       0.124000
     40 H6          -3.4290    -2.6760     2.5020 ha         1 0P5       0.129000
     41 H7           0.8190    -2.3030     0.2950 ha         1 0P5       0.149000
     42 H8           0.1470     3.8200     0.7480 h1         1 0P5       0.085200
     43 H9          -0.0650     3.4700    -0.9770 h1         1 0P5       0.085200
     44 H10         -3.3040     2.4920    -0.6290 h1         1 0P5       0.073700
     45 H11         -3.3610     1.7630     0.9810 h1         1 0P5       0.073700
     46 H12         -4.3870     4.0650     0.8870 h1         1 0P5       0.051200
     47 H13         -3.0940     3.8970     2.0920 h1         1 0P5       0.051200
     48 H14         -3.0760     5.9520     0.3420 hn         1 0P5       0.319500
     49 H15          2.9050     0.7640    -0.0080 hn         1 0P5       0.504000
     50 H16          3.2000    -2.0990     0.6580 h1         1 0P5       0.075700
     51 H17          3.1160    -1.8140    -1.0840 h1         1 0P5       0.075700
     52 H18          5.0850    -0.1230     1.8140 hn         1 0P5       0.367000
     53 H19          7.7740     0.6880     2.2850 ha         1 0P5       0.119000
     54 H20         10.0180     0.7180     1.1470 ha         1 0P5       0.113000
     55 H21         10.2580    -0.2090    -1.1620 ha         1 0P5       0.115000
     56 H22          8.2630    -1.1730    -2.3490 ha         1 0P5       0.129000
@<TRIPOS>BOND
     1     1     2 1   
     2     2     3 ar  
     3     2     9 ar  
     4     3     4 ar  
     5     3    35 1   
     6     4     5 1   
     7     4     7 ar  
     8     5     6 1   
     9     6    36 1   
    10     6    37 1   
    11     6    38 1   
    12     7     8 ar  
    13     7    39 1   
    14     8     9 ar  
    15     8    40 1   
    16     9    10 1   
    17    10    11 1   
    18    11    12 ar  
    19    11    13 ar  
    20    12    23 ar  
    21    12    41 1   
    22    13    14 ar  
    23    14    15 1   
    24    14    22 ar  
    25    15    16 1   
    26    15    17 1   
    27    16    20 1   
    28    16    42 1   
    29    16    43 1   
    30    17    18 1   
    31    17    44 1   
    32    17    45 1   
    33    18    19 1   
    34    18    46 1   
    35    18    47 1   
    36    19    20 1   
    37    19    48 1   
    38    20    21 2   
    39    22    23 ar  
    40    23    24 1   
    41    24    25 1   
    42    24    49 1   
    43    25    26 1   
    44    25    50 1   
    45    25    51 1   
    46    26    27 1   
    47    26    34 2   
    48    27    28 1   
    49    27    52 1   
    50    28    29 ar  
    51    28    33 ar  
    52    29    30 ar  
    53    29    53 1   
    54    30    31 ar  
    55    30    54 1   
    56    31    32 ar  
    57    31    55 1   
    58    32    33 ar  
    59    32    56 1   
    60    33    34 1   
@<TRIPOS>SUBSTRUCTURE
     1 0P5         1 TEMP              0 ****  ****    0 ROOT
