@<TRIPOS>MOLECULE
0P6
   20    21     1     0     0
SMALL
bcc


@<TRIPOS>ATOM
      1 CAE          2.1000     1.1400     0.0410 ca         1 0P6      -0.287300
      2 CAG          0.9420     1.8480     0.0410 ca         1 0P6      -0.049000
      3 CAK         -0.3080     1.1750     0.0040 ca         1 0P6      -0.151300
      4 CAF         -1.5590     1.8270     0.0060 ca         1 0P6      -0.139000
      5 CAC         -2.7090     1.0810    -0.0320 ca         1 0P6      -0.101000
      6 CAD         -2.6640    -0.3260    -0.0750 ca         1 0P6      -0.169000
      7 CAJ         -1.4540    -0.9770    -0.0780 ca         1 0P6       0.085800
      8 OAB         -1.3790    -2.3170    -0.1210 oh         1 0P6      -0.493100
      9 CAL         -0.2470    -0.2290    -0.0360 ca         1 0P6       0.374600
     10 NAH          0.9050    -0.9370    -0.0400 nb         1 0P6      -0.789000
     11 CAI          2.0460    -0.2890     0.0020 ca         1 0P6       0.686200
     12 NAA          3.1980    -1.0000     0.0500 nv         1 0P6      -0.959500
     13 H1           3.0590     1.6410     0.0730 ha         1 0P6       0.139000
     14 H2           0.9660     2.9300     0.0690 ha         1 0P6       0.137000
     15 H3          -1.5980     2.9080     0.0370 ha         1 0P6       0.132000
     16 H4          -3.6740     1.5710    -0.0300 ha         1 0P6       0.132000
     17 H5          -3.5830    -0.8970    -0.1070 ha         1 0P6       0.147000
     18 H6          -0.4340    -2.5470    -0.1160 ho         1 0P6       0.455000
     19 H7           4.0620    -0.5420    -0.1840 hn         1 0P6       0.423800
     20 H8           3.1520    -1.9790    -0.1790 hn         1 0P6       0.423800
@<TRIPOS>BOND
     1     1     2 ar  
     2     1    11 ar  
     3     1    13 1   
     4     2     3 ar  
     5     2    14 1   
     6     3     4 ar  
     7     3     9 ar  
     8     4     5 ar  
     9     4    15 1   
    10     5     6 ar  
    11     5    16 1   
    12     6     7 ar  
    13     6    17 1   
    14     7     8 1   
    15     7     9 ar  
    16     8    18 1   
    17     9    10 ar  
    18    10    11 ar  
    19    11    12 1   
    20    12    19 1   
    21    12    20 1   
@<TRIPOS>SUBSTRUCTURE
     1 0P6         1 TEMP              0 ****  ****    0 ROOT
