@<TRIPOS>MOLECULE
0P6
   20    21     1     0     0
SMALL
No Charge or Current Charge


@<TRIPOS>ATOM
      1 CAE          2.1340     1.1770     0.0760 ca         1 0P6      -0.204000
      2 CAG          0.9230     1.8850     0.0600 ca         1 0P6      -0.031000
      3 CAK         -0.2740     1.1470     0.0110 ca         1 0P6      -0.086000
      4 CAF         -1.5170     1.8100    -0.0050 ca         1 0P6      -0.121000
      5 CAC         -2.7120     1.0720    -0.0540 ca         1 0P6      -0.083000
      6 CAD         -2.6680    -0.3310    -0.0870 ca         1 0P6      -0.151000
      7 CAJ         -1.4310    -0.9960    -0.0700 ca         1 0P6       0.151100
      8 OAB         -1.3900    -2.3610    -0.1010 oh         1 0P6      -0.532100
      9 CAL         -0.2130    -0.2720    -0.0210 ca         1 0P6       0.244000
     10 NAH          0.9730    -0.9430    -0.0070 nb         1 0P6      -0.789000
     11 CAI          2.0830    -0.2180     0.0440 ca         1 0P6       0.620900
     12 NAA          3.1580    -1.0040     0.0430 nv         1 0P6      -1.069900
     13 H1           3.0850     1.6980     0.1130 ha         1 0P6       0.121000
     14 H2           0.9150     2.9730     0.0860 ha         1 0P6       0.119000
     15 H3          -1.5590     2.8970     0.0200 ha         1 0P6       0.114000
     16 H4          -3.6700     1.5880    -0.0670 ha         1 0P6       0.114000
     17 H5          -3.5920    -0.9040    -0.1240 ha         1 0P6       0.129000
     18 H6          -0.4280    -2.5770    -0.0780 ho         1 0P6       0.494000
     19 H7           4.0260    -0.5970    -0.2880 hn         1 0P6       0.479000
     20 H8           2.9790    -1.9630    -0.2260 hn         1 0P6       0.479000
@<TRIPOS>BOND
     1     1     2 ar  
     2     1    11 ar  
     3     1    13 1   
     4     2     3 ar  
     5     2    14 1   
     6     3     4 ar  
     7     3     9 ar  
     8     4     5 ar  
     9     4    15 1   
    10     5     6 ar  
    11     5    16 1   
    12     6     7 ar  
    13     6    17 1   
    14     7     8 1   
    15     7     9 ar  
    16     8    18 1   
    17     9    10 ar  
    18    10    11 ar  
    19    11    12 1   
    20    12    19 1   
    21    12    20 1   
@<TRIPOS>SUBSTRUCTURE
     1 0P6         1 TEMP              0 ****  ****    0 ROOT
