@<TRIPOS>MOLECULE
0P8
   48    50     1     0     0
SMALL
No Charge or Current Charge


@<TRIPOS>ATOM
      1 CAA         -3.2290    -2.8280     2.0620 c3         1 0P8       0.148900
      2 OAS         -2.8670    -2.1800     0.8320 os         1 0P8      -0.359100
      3 CAX         -3.4950    -1.0060     0.4820 ca         1 0P8       0.141100
      4 CAU         -4.7530    -1.0410    -0.1600 ca         1 0P8      -0.047900
      5 Br1         -5.6100    -2.7070    -0.5820 br         1 0P8      -0.070100
      6 CAI         -5.3910     0.1560    -0.5230 ca         1 0P8      -0.045000
      7 CAT         -4.7730     1.3880    -0.2540 ca         1 0P8      -0.030900
      8 Br2         -5.6390     3.0180    -0.7550 br         1 0P8      -0.080100
      9 CAJ         -3.5160     1.4280     0.3720 ca         1 0P8      -0.045000
     10 CAW         -2.8660     0.2330     0.7430 ca         1 0P8      -0.098300
     11 CAO         -1.5000     0.3030     1.4130 c3         1 0P8       0.211100
     12 NAP         -0.4320     0.2120     0.4050 n7         1 0P8      -0.851400
     13 CAM          0.9390     0.2420     0.9420 c3         1 0P8       0.159800
     14 CAL          1.9590     0.1510    -0.2070 c3         1 0P8      -0.096400
     15 CAN          3.4130     0.1920     0.2980 c3         1 0P8       0.223800
     16 NAQ          4.3570     0.1020    -0.8270 nu         1 0P8      -0.855200
     17 CAV          5.7030     0.1000    -0.7780 cc         1 0P8       0.430000
     18 CAK          6.5130     0.0180    -1.8650 cd         1 0P8      -0.497200
     19 CAY          7.9650     0.0140    -1.8240 c          1 0P8       0.610900
     20 OAB          8.6330    -0.0630    -2.8470 o          1 0P8      -0.595100
     21 CBA          8.5660     0.1090    -0.4840 ca         1 0P8      -0.194600
     22 CAH          9.9630     0.1170    -0.2840 ca         1 0P8      -0.025000
     23 CAF         10.4790     0.2100     1.0190 ca         1 0P8      -0.155000
     24 CAE          9.6040     0.2930     2.1150 ca         1 0P8      -0.058000
     25 CAG          8.2150     0.2830     1.9010 ca         1 0P8      -0.180000
     26 CAZ          7.6940     0.1910     0.5990 ca         1 0P8       0.320000
     27 NAR          6.3130     0.1860     0.4410 na         1 0P8      -0.824000
     28 H1          -3.0350    -2.1700     2.9190 h1         1 0P8       0.042700
     29 H2          -4.2930    -3.0950     2.0690 h1         1 0P8       0.042700
     30 H3          -2.6450    -3.7470     2.1960 h1         1 0P8       0.042700
     31 H4          -6.3590     0.1300    -1.0180 ha         1 0P8       0.147000
     32 H5          -3.0410     2.3870     0.5650 ha         1 0P8       0.137000
     33 H6          -1.4200     1.2480     1.9680 h1         1 0P8       0.038700
     34 H7          -1.4080    -0.5080     2.1480 h1         1 0P8       0.038700
     35 H8          -0.5620    -0.6770    -0.0930 hn         1 0P8       0.422000
     36 H10          1.1080     1.1740     1.4990 h1         1 0P8       0.030200
     37 H11          1.0980    -0.5970     1.6330 h1         1 0P8       0.030200
     38 H12          1.7960    -0.7800    -0.7630 hc         1 0P8       0.061700
     39 H13          1.7930     0.9840    -0.9010 hc         1 0P8       0.061700
     40 H14          3.5760     1.1290     0.8480 h1         1 0P8       0.037700
     41 H15          3.5770    -0.6450     0.9910 h1         1 0P8       0.037700
     42 H16          3.9690     0.0390    -1.7670 hn         1 0P8       0.511000
     43 H17          6.1020    -0.0530    -2.8610 ha         1 0P8       0.202000
     44 H19         10.6440     0.0530    -1.1310 ha         1 0P8       0.140000
     45 H20         11.5550     0.2170     1.1790 ha         1 0P8       0.119000
     46 H21         10.0010     0.3640     3.1250 ha         1 0P8       0.113000
     47 H22          7.5440     0.3480     2.7530 ha         1 0P8       0.109000
     48 H9           5.7270     0.2480     1.2610 hn         1 0P8       0.498000
@<TRIPOS>BOND
     1     1     2 1   
     2     1    28 1   
     3     1    29 1   
     4     1    30 1   
     5     2     3 1   
     6     3     4 ar  
     7     3    10 ar  
     8     4     5 1   
     9     4     6 ar  
    10     6     7 ar  
    11     6    31 1   
    12     7     8 1   
    13     7     9 ar  
    14     9    10 ar  
    15     9    32 1   
    16    10    11 1   
    17    11    12 1   
    18    11    33 1   
    19    11    34 1   
    20    12    13 1   
    21    12    35 1   
    22    13    14 1   
    23    13    36 1   
    24    13    37 1   
    25    14    15 1   
    26    14    38 1   
    27    14    39 1   
    28    15    16 1   
    29    15    40 1   
    30    15    41 1   
    31    16    17 1   
    32    16    42 1   
    33    17    18 2   
    34    17    27 1   
    35    18    19 1   
    36    18    43 1   
    37    19    20 2   
    38    19    21 1   
    39    21    22 ar  
    40    21    26 ar  
    41    22    23 ar  
    42    22    44 1   
    43    23    24 ar  
    44    23    45 1   
    45    24    25 ar  
    46    24    46 1   
    47    25    26 ar  
    48    25    47 1   
    49    26    27 1   
    50    27    48 1   
@<TRIPOS>SUBSTRUCTURE
     1 0P8         1 TEMP              0 ****  ****    0 ROOT
