@<TRIPOS>MOLECULE
0P8
   48    50     1     0     0
SMALL
abcg2


@<TRIPOS>ATOM
      1 CAA         -3.2230    -2.8170     1.7990 c3         1 0P8       0.148900
      2 OAS         -2.9160    -2.1560     0.5710 os         1 0P8      -0.359100
      3 CAX         -3.4660    -0.9280     0.4270 ca         1 0P8       0.141100
      4 CAU         -4.7200    -0.7820    -0.1670 ca         1 0P8      -0.047900
      5 BR1         -5.6430    -2.3090    -0.7630 br         1 0P8      -0.070100
      6 CAI         -5.2890     0.4670    -0.3630 ca         1 0P8      -0.045000
      7 CAT         -4.5790     1.5830     0.0500 ca         1 0P8      -0.030900
      8 BR2         -5.3310     3.2940    -0.2000 br         1 0P8      -0.080100
      9 CAJ         -3.3270     1.4640     0.6290 ca         1 0P8      -0.045000
     10 CAW         -2.7640     0.2090     0.8300 ca         1 0P8      -0.098300
     11 CAO         -1.3750     0.1020     1.4050 c3         1 0P8       0.211100
     12 NAP         -0.3890     0.0240     0.3410 n7         1 0P8      -0.851400
     13 CAM          0.9680     0.0310     0.8560 c3         1 0P8       0.159800
     14 CAL          1.9760    -0.0580    -0.2780 c3         1 0P8      -0.096400
     15 CAN          3.4040    -0.0020     0.2380 c3         1 0P8       0.223800
     16 NAQ          4.3340    -0.1300    -0.8640 nu         1 0P8      -0.855200
     17 CAV          5.6720    -0.0780    -0.7660 cc         1 0P8       0.430000
     18 CAK          6.5020    -0.3370    -1.8470 cd         1 0P8      -0.497200
     19 CAY          7.9130    -0.2630    -1.7580 c          1 0P8       0.610900
     20 OAB          8.6820    -0.4850    -2.7050 o          1 0P8      -0.595100
     21 CBA          8.4400     0.1040    -0.4270 ca         1 0P8      -0.194600
     22 CAH          9.8150     0.2080    -0.1980 ca         1 0P8      -0.025000
     23 CAF         10.3050     0.5480     1.0450 ca         1 0P8      -0.155000
     24 CAE          9.4160     0.7950     2.0940 ca         1 0P8      -0.058000
     25 CAG          8.0550     0.6990     1.8960 ca         1 0P8      -0.180000
     26 CAZ          7.5630     0.3520     0.6340 ca         1 0P8       0.320000
     27 NAR          6.2060     0.2530     0.4320 na         1 0P8      -0.824000
     28 H1          -2.8170    -2.2730     2.6550 h1         1 0P8       0.042700
     29 H2          -4.2990    -2.9360     1.9360 h1         1 0P8       0.042700
     30 H3          -2.7610    -3.8000     1.7520 h1         1 0P8       0.042700
     31 H4          -6.2610     0.5620    -0.8280 ha         1 0P8       0.147000
     32 H5          -2.7750     2.3430     0.9360 ha         1 0P8       0.137000
     33 H6          -1.1730     1.0040     1.9860 h1         1 0P8       0.038700
     34 H7          -1.3070    -0.7350     2.1130 h1         1 0P8       0.038700
     35 H8          -0.5340    -0.8370    -0.1740 hn         1 0P8       0.422000
     36 H10          1.1170     0.9670     1.4050 h1         1 0P8       0.030200
     37 H11          1.1530    -0.7810     1.5770 h1         1 0P8       0.030200
     38 H12          1.8270    -0.9930    -0.8270 hc         1 0P8       0.061700
     39 H13          1.8080     0.7610    -0.9820 hc         1 0P8       0.061700
     40 H14          3.5580     0.9540     0.7490 h1         1 0P8       0.037700
     41 H15          3.5620    -0.7950     0.9780 h1         1 0P8       0.037700
     42 H16          3.9720    -0.4750    -1.7380 hn         1 0P8       0.511000
     43 H17          6.0440    -0.6050    -2.7920 ha         1 0P8       0.202000
     44 H19         10.4930     0.0150    -1.0180 ha         1 0P8       0.140000
     45 H20         11.3720     0.6240     1.2100 ha         1 0P8       0.119000
     46 H21          9.7920     1.0640     3.0720 ha         1 0P8       0.113000
     47 H22          7.3660     0.8900     2.7100 ha         1 0P8       0.109000
     48 H9           5.6020     0.4290     1.2210 hn         1 0P8       0.498000
@<TRIPOS>BOND
     1     1     2 1   
     2     1    28 1   
     3     1    29 1   
     4     1    30 1   
     5     2     3 1   
     6     3     4 ar  
     7     3    10 ar  
     8     4     5 1   
     9     4     6 ar  
    10     6     7 ar  
    11     6    31 1   
    12     7     8 1   
    13     7     9 ar  
    14     9    10 ar  
    15     9    32 1   
    16    10    11 1   
    17    11    12 1   
    18    11    33 1   
    19    11    34 1   
    20    12    13 1   
    21    12    35 1   
    22    13    14 1   
    23    13    36 1   
    24    13    37 1   
    25    14    15 1   
    26    14    38 1   
    27    14    39 1   
    28    15    16 1   
    29    15    40 1   
    30    15    41 1   
    31    16    17 1   
    32    16    42 1   
    33    17    18 2   
    34    17    27 1   
    35    18    19 1   
    36    18    43 1   
    37    19    20 2   
    38    19    21 1   
    39    21    22 ar  
    40    21    26 ar  
    41    22    23 ar  
    42    22    44 1   
    43    23    24 ar  
    44    23    45 1   
    45    24    25 ar  
    46    24    46 1   
    47    25    26 ar  
    48    25    47 1   
    49    26    27 1   
    50    27    48 1   
@<TRIPOS>SUBSTRUCTURE
     1 0P8         1 TEMP              0 ****  ****    0 ROOT
