@<TRIPOS>MOLECULE
0PA
   20    20     1     0     0
SMALL
No Charge or Current Charge


@<TRIPOS>ATOM
      1 O2           2.4140    -0.1610    -1.5160 o          1 0PA      -0.743500
      2 C1           2.0270    -0.0470    -0.3630 c          1 0PA       0.715000
      3 O1           2.4760    -0.7030     0.5660 o          1 0PA      -0.743500
      4 C2           0.8910     0.9530    -0.0740 c3         1 0PA      -0.197400
      5 C3          -0.5010     0.2960    -0.2830 c5         1 0PA      -0.039700
      6 C4          -1.6950     1.2520    -0.0380 c5         1 0PA      -0.076400
      7 C5          -2.9070     0.2830    -0.1390 c5         1 0PA      -0.080400
      8 C6          -2.3690    -1.0830     0.3960 c5         1 0PA      -0.080400
      9 C7          -0.8710    -0.8210     0.7280 c5         1 0PA      -0.076400
     10 H2           0.9330     1.2870     0.9710 hc         1 0PA       0.016700
     11 H2A          0.9370     1.7800    -0.7930 hc         1 0PA       0.016700
     12 H3          -0.5210    -0.0880    -1.3120 hc         1 0PA       0.057700
     13 H4          -1.6420     1.7230     0.9510 hc         1 0PA       0.036950
     14 H4A         -1.7480     2.0570    -0.7790 hc         1 0PA       0.036950
     15 H5          -3.7640     0.6460     0.4400 hc         1 0PA       0.021200
     16 H5A         -3.2440     0.1850    -1.1780 hc         1 0PA       0.021200
     17 H6          -2.9210    -1.4280     1.2770 hc         1 0PA       0.021200
     18 H6A         -2.4710    -1.8630    -0.3680 hc         1 0PA       0.021200
     19 H7          -0.2620    -1.7230     0.6030 hc         1 0PA       0.036950
     20 H7A         -0.7460    -0.4860     1.7640 hc         1 0PA       0.036950
@<TRIPOS>BOND
     1     1     2 1   
     2     2     3 1   
     3     2     4 1   
     4     4     5 1   
     5     4    10 1   
     6     4    11 1   
     7     5     6 1   
     8     5     9 1   
     9     5    12 1   
    10     6     7 1   
    11     6    13 1   
    12     6    14 1   
    13     7     8 1   
    14     7    15 1   
    15     7    16 1   
    16     8     9 1   
    17     8    17 1   
    18     8    18 1   
    19     9    19 1   
    20     9    20 1   
@<TRIPOS>SUBSTRUCTURE
     1 0PA         1 TEMP              0 ****  ****    0 ROOT
