@<TRIPOS>MOLECULE
0PA
   20    20     1     0     0
SMALL
bcc


@<TRIPOS>ATOM
      1 O2           2.0410    -0.8750    -1.0050 o          1 0PA      -0.848800
      2 C1           2.0750    -0.0090    -0.1070 c          1 0PA       0.925600
      3 O1           3.0410     0.2250     0.6510 o          1 0PA      -0.848800
      4 C2           0.8380     0.8890     0.0600 c3         1 0PA      -0.197400
      5 C3          -0.4900     0.2680    -0.3350 c5         1 0PA      -0.039700
      6 C4          -1.6850     1.2280    -0.2050 c5         1 0PA      -0.076400
      7 C5          -2.9220     0.3480     0.0820 c5         1 0PA      -0.080400
      8 C6          -2.3940    -1.0940     0.1760 c5         1 0PA      -0.080400
      9 C7          -0.9140    -0.9320     0.5110 c5         1 0PA      -0.076400
     10 H2           0.7800     1.2470     1.0940 hc         1 0PA       0.016700
     11 H2A          1.0070     1.7890    -0.5470 hc         1 0PA       0.016700
     12 H3          -0.4220    -0.0670    -1.3750 hc         1 0PA       0.057700
     13 H4          -1.5150     1.9220     0.6230 hc         1 0PA       0.036950
     14 H4A         -1.8050     1.8420    -1.1010 hc         1 0PA       0.036950
     15 H5          -3.3870     0.6440     1.0240 hc         1 0PA       0.021200
     16 H5A         -3.6900     0.4480    -0.6860 hc         1 0PA       0.021200
     17 H6          -2.9390    -1.6950     0.9060 hc         1 0PA       0.021200
     18 H6A         -2.4940    -1.5980    -0.7890 hc         1 0PA       0.021200
     19 H7          -0.3210    -1.8240     0.3020 hc         1 0PA       0.036950
     20 H7A         -0.7880    -0.6960     1.5750 hc         1 0PA       0.036950
@<TRIPOS>BOND
     1     1     2 1   
     2     2     3 1   
     3     2     4 1   
     4     4     5 1   
     5     4    10 1   
     6     4    11 1   
     7     5     6 1   
     8     5     9 1   
     9     5    12 1   
    10     6     7 1   
    11     6    13 1   
    12     6    14 1   
    13     7     8 1   
    14     7    15 1   
    15     7    16 1   
    16     8     9 1   
    17     8    17 1   
    18     8    18 1   
    19     9    19 1   
    20     9    20 1   
@<TRIPOS>SUBSTRUCTURE
     1 0PA         1 TEMP              0 ****  ****    0 ROOT
