@<TRIPOS>MOLECULE
0PC
   51    52     1     0     0
SMALL
No Charge or Current Charge


@<TRIPOS>ATOM
      1 C1           7.7200    29.1830    17.0500 c          1 0PC       0.639100
      2 O1           7.4160    30.2340    16.5070 o          1 0PC      -0.530000
      3 O2           6.8880    28.3760    17.7650 os         1 0PC      -0.451100
      4 C2           5.4980    28.7380    17.8580 c3         1 0PC       0.231900
      5 C3           4.8080    28.4540    16.5260 ca         1 0PC      -0.123300
      6 C4           4.2530    29.5050    15.7680 ca         1 0PC      -0.086500
      7 C5           3.6160    29.2370    14.5430 ca         1 0PC      -0.110500
      8 C6           3.5280    27.9170    14.0690 ca         1 0PC      -0.103000
      9 C7           4.0780    26.8650    14.8200 ca         1 0PC      -0.110500
     10 C8           4.7150    27.1320    16.0450 ca         1 0PC      -0.086500
     11 N            8.9670    28.6230    17.0390 ns         1 0PC      -0.470900
     12 CA          10.1670    29.2240    16.4170 c3         1 0PC       0.050700
     13 C           11.0460    28.1210    15.7640 c          1 0PC       0.568100
     14 O           10.8970    26.9260    15.9830 o          1 0PC      -0.584100
     15 CB          10.9800    30.0520    17.4490 c3         1 0PC      -0.037100
     16 CG          10.1700    31.1590    18.1150 ca         1 0PC      -0.085300
     17 CD1          9.9590    32.3810    17.4480 ca         1 0PC      -0.101000
     18 CD2          9.6210    30.9680    19.3990 ca         1 0PC      -0.101000
     19 CE1          9.2060    33.4000    18.0560 ca         1 0PC      -0.104500
     20 CE2          8.8670    31.9870    20.0070 ca         1 0PC      -0.104500
     21 CZ           8.6600    33.2040    19.3360 ca         1 0PC      -0.103000
     22 N1          12.0290    28.5820    14.9080 ns         1 0PC      -0.507900
     23 CA1         12.9610    27.7130    14.1550 c3         1 0PC       0.012700
     24 C9          14.2190    27.3890    15.0090 c          1 0PC       0.566100
     25 O3          14.4220    26.2590    15.4430 o          1 0PC      -0.472100
     26 CB1         13.3010    28.3450    12.7860 c3         1 0PC      -0.105100
     27 CM          15.1830    28.5580    15.2880 c3         1 0PC       0.009600
     28 Cl1         16.3080    28.2890    16.7040 cl         1 0PC      -0.237000
     29 H21          5.0080    28.1400    18.6370 h1         1 0PC       0.065700
     30 H22          5.3820    29.7940    18.1390 h1         1 0PC       0.065700
     31 H41          4.3180    30.5310    16.1240 ha         1 0PC       0.115000
     32 H51          3.1920    30.0530    13.9620 ha         1 0PC       0.113500
     33 H61          3.0360    27.7110    13.1210 ha         1 0PC       0.112000
     34 H71          4.0110    25.8430    14.4550 ha         1 0PC       0.113500
     35 H81          5.1400    26.3120    16.6210 ha         1 0PC       0.115000
     36 H            9.0540    27.7280    17.5030 hn         1 0PC       0.330500
     37 HA           9.8450    29.8920    15.6070 h1         1 0PC       0.087700
     38 HB2         11.3820    29.3710    18.2100 hc         1 0PC       0.058700
     39 HB3         11.8540    30.4910    16.9520 hc         1 0PC       0.058700
     40 HD1         10.3750    32.5410    16.4550 ha         1 0PC       0.108000
     41 HD2          9.7730    30.0270    19.9240 ha         1 0PC       0.108000
     42 HE1          9.0450    34.3420    17.5350 ha         1 0PC       0.115500
     43 HE2          8.4440    31.8320    20.9970 ha         1 0PC       0.115500
     44 HZ           8.0760    33.9920    19.8060 ha         1 0PC       0.115000
     45 H1          12.0710    29.5850    14.7600 hn         1 0PC       0.322500
     46 HA1         12.4660    26.7510    13.9620 h1         1 0PC       0.097700
     47 HB1         13.9870    27.7000    12.2230 hc         1 0PC       0.052367
     48 HB21        12.3900    28.4710    12.1880 hc         1 0PC       0.052367
     49 HB31        13.7690    29.3290    12.9030 hc         1 0PC       0.052367
     50 HM1         15.7930    28.7300    14.3940 h1         1 0PC       0.081700
     51 HM2         14.5970    29.4600    15.4980 h1         1 0PC       0.081700
@<TRIPOS>BOND
     1     1     2 2   
     2     1     3 1   
     3     1    11 1   
     4     3     4 1   
     5     4     5 1   
     6     4    29 1   
     7     4    30 1   
     8     5     6 ar  
     9     5    10 ar  
    10     6     7 ar  
    11     6    31 1   
    12     7     8 ar  
    13     7    32 1   
    14     8     9 ar  
    15     8    33 1   
    16     9    10 ar  
    17     9    34 1   
    18    10    35 1   
    19    11    12 1   
    20    11    36 1   
    21    12    13 1   
    22    12    15 1   
    23    12    37 1   
    24    13    14 2   
    25    13    22 1   
    26    15    16 1   
    27    15    38 1   
    28    15    39 1   
    29    16    17 ar  
    30    16    18 ar  
    31    17    19 ar  
    32    17    40 1   
    33    18    20 ar  
    34    18    41 1   
    35    19    21 ar  
    36    19    42 1   
    37    20    21 ar  
    38    20    43 1   
    39    21    44 1   
    40    22    23 1   
    41    22    45 1   
    42    23    24 1   
    43    23    26 1   
    44    23    46 1   
    45    24    25 2   
    46    24    27 1   
    47    26    47 1   
    48    26    48 1   
    49    26    49 1   
    50    27    28 1   
    51    27    50 1   
    52    27    51 1   
@<TRIPOS>SUBSTRUCTURE
     1 0PC         1 TEMP              0 ****  ****    0 ROOT
