@<TRIPOS>MOLECULE
0PC
   51    52     1     0     0
SMALL
bcc


@<TRIPOS>ATOM
      1 C1           7.4810    29.8550    16.6810 c          1 0PC       0.755100
      2 O1           7.4060    30.2450    15.5360 o          1 0PC      -0.579000
      3 O2           6.4450    29.3950    17.3920 os         1 0PC      -0.427900
      4 C2           5.2130    29.2320    16.6980 c3         1 0PC       0.208700
      5 C3           5.2580    28.1280    15.6770 ca         1 0PC      -0.123300
      6 C4           4.5620    28.2670    14.4810 ca         1 0PC      -0.104500
      7 C5           4.5500    27.2410    13.5450 ca         1 0PC      -0.128500
      8 C6           5.2500    26.0680    13.7910 ca         1 0PC      -0.121000
      9 C7           5.9520    25.9250    14.9810 ca         1 0PC      -0.128500
     10 C8           5.9520    26.9460    15.9220 ca         1 0PC      -0.104500
     11 N            8.6130    29.8520    17.4170 ns         1 0PC      -0.537900
     12 CA           9.8770    30.0900    16.7810 c3         1 0PC       0.050700
     13 C           10.2240    28.9450    15.8250 c          1 0PC       0.635100
     14 O            9.7590    27.8250    15.9500 o          1 0PC      -0.584100
     15 CB          10.9780    30.2380    17.8430 c3         1 0PC      -0.037100
     16 CG          10.7420    31.4310    18.7270 ca         1 0PC      -0.085300
     17 CD1         11.0490    32.7110    18.2700 ca         1 0PC      -0.119000
     18 CD2         10.1880    31.2900    19.9950 ca         1 0PC      -0.119000
     19 CE1         10.8020    33.8250    19.0600 ca         1 0PC      -0.122500
     20 CE2          9.9400    32.4020    20.7900 ca         1 0PC      -0.122500
     21 CZ          10.2440    33.6730    20.3230 ca         1 0PC      -0.121000
     22 N1          11.1180    29.2480    14.8670 ns         1 0PC      -0.574900
     23 CA1         11.5030    28.2730    13.8730 c3         1 0PC       0.012700
     24 C9          12.2590    27.0950    14.4760 c          1 0PC       0.566100
     25 O3          12.2020    26.0030    13.9780 o          1 0PC      -0.472100
     26 CB1         12.3760    28.9300    12.8070 c3         1 0PC      -0.105100
     27 CM          13.1330    27.4050    15.6730 c3         1 0PC      -0.067000
     28 CL1         14.2540    26.0720    16.0260 cl         1 0PC      -0.160400
     29 H21          4.4920    28.9950    17.4810 h1         1 0PC       0.065700
     30 H22          4.8990    30.1700    16.2350 h1         1 0PC       0.065700
     31 H41          4.0280    29.1870    14.2760 ha         1 0PC       0.133000
     32 H51          4.0040    27.3650    12.6190 ha         1 0PC       0.131500
     33 H61          5.2510    25.2700    13.0600 ha         1 0PC       0.130000
     34 H71          6.5010    25.0130    15.1800 ha         1 0PC       0.131500
     35 H81          6.4990    26.8140    16.8470 ha         1 0PC       0.133000
     36 H            8.6090    29.3480    18.2910 hn         1 0PC       0.330500
     37 HA           9.8240    31.0230    16.2130 h1         1 0PC       0.087700
     38 HB2         11.0280    29.3220    18.4390 hc         1 0PC       0.058700
     39 HB3         11.9390    30.3350    17.3330 hc         1 0PC       0.058700
     40 HD1         11.4880    32.8370    17.2870 ha         1 0PC       0.126000
     41 HD2          9.9510    30.3000    20.3690 ha         1 0PC       0.126000
     42 HE1         11.0480    34.8120    18.6900 ha         1 0PC       0.133500
     43 HE2          9.5100    32.2740    21.7750 ha         1 0PC       0.133500
     44 HZ          10.0530    34.5410    20.9420 ha         1 0PC       0.133000
     45 H1          11.4330    30.2010    14.7580 hn         1 0PC       0.322500
     46 HA1         10.6110    27.8630    13.3910 h1         1 0PC       0.097700
     47 HB1         12.6360    28.2080    12.0350 hc         1 0PC       0.052367
     48 HB21        11.8290    29.7450    12.3330 hc         1 0PC       0.052367
     49 HB31        13.2970    29.3350    13.2270 hc         1 0PC       0.052367
     50 HM1         13.7140    28.3140    15.5090 h1         1 0PC       0.081700
     51 HM2         12.5160    27.5630    16.5570 h1         1 0PC       0.081700
@<TRIPOS>BOND
     1     1     2 2   
     2     1     3 1   
     3     1    11 1   
     4     3     4 1   
     5     4     5 1   
     6     4    29 1   
     7     4    30 1   
     8     5     6 ar  
     9     5    10 ar  
    10     6     7 ar  
    11     6    31 1   
    12     7     8 ar  
    13     7    32 1   
    14     8     9 ar  
    15     8    33 1   
    16     9    10 ar  
    17     9    34 1   
    18    10    35 1   
    19    11    12 1   
    20    11    36 1   
    21    12    13 1   
    22    12    15 1   
    23    12    37 1   
    24    13    14 2   
    25    13    22 1   
    26    15    16 1   
    27    15    38 1   
    28    15    39 1   
    29    16    17 ar  
    30    16    18 ar  
    31    17    19 ar  
    32    17    40 1   
    33    18    20 ar  
    34    18    41 1   
    35    19    21 ar  
    36    19    42 1   
    37    20    21 ar  
    38    20    43 1   
    39    21    44 1   
    40    22    23 1   
    41    22    45 1   
    42    23    24 1   
    43    23    26 1   
    44    23    46 1   
    45    24    25 2   
    46    24    27 1   
    47    26    47 1   
    48    26    48 1   
    49    26    49 1   
    50    27    28 1   
    51    27    50 1   
    52    27    51 1   
@<TRIPOS>SUBSTRUCTURE
     1 0PC         1 TEMP              0 ****  ****    0 ROOT
