@<TRIPOS>MOLECULE
0PI
   63    63     1     0     0
SMALL
No Charge or Current Charge


@<TRIPOS>ATOM
      1 C1           2.6060     0.3490    -1.1220 c          1 0PI       0.616100
      2 O1           2.7360     0.5860    -2.3130 o          1 0PI      -0.569000
      3 O2           3.1770    -0.6840    -0.4470 os         1 0PI      -0.471100
      4 C2           3.9780    -1.6110    -1.1950 c3         1 0PI       0.228900
      5 C3           4.4260    -2.7220    -0.2550 ca         1 0PI      -0.075300
      6 C4           3.6590    -3.8980    -0.1270 ca         1 0PI      -0.085500
      7 C5           4.0680    -4.9190     0.7470 ca         1 0PI      -0.123000
      8 C6           5.2460    -4.7730     1.4980 ca         1 0PI      -0.117000
      9 C7           6.0140    -3.6030     1.3760 ca         1 0PI      -0.123000
     10 C8           5.6050    -2.5800     0.5030 ca         1 0PI      -0.085500
     11 N            1.8450     1.0750    -0.2470 ns         1 0PI      -0.436900
     12 C            1.0080     2.2560    -0.6020 c3         1 0PI      -0.252000
     13 P           -0.0180     2.9730     0.7720 p5         1 0PI       1.403400
     14 O11          0.5500     4.2820     1.2180 o          1 0PI      -0.823500
     15 O21         -0.1280     1.9900     1.8920 o          1 0PI      -0.823500
     16 OS          -1.4240     3.1760     0.0010 os         1 0PI      -0.595400
     17 CA          -2.5770     2.3810     0.3720 c3         1 0PI       0.167300
     18 C9          -2.4510     0.8860    -0.0830 c          1 0PI       0.562100
     19 O           -1.9370     0.5440    -1.1430 o          1 0PI      -0.659100
     20 CB          -3.8260     3.0460    -0.2690 c3         1 0PI      -0.070400
     21 CG          -4.4530     4.2180     0.5410 c3         1 0PI      -0.053700
     22 CD1         -3.4910     5.4120     0.7430 c3         1 0PI      -0.081100
     23 CD2         -5.7750     4.6880    -0.1090 c3         1 0PI      -0.081100
     24 N1          -2.9350    -0.0390     0.8240 ns         1 0PI      -0.447900
     25 CA1         -2.9390    -1.5140     0.6470 c3         1 0PI      -0.032300
     26 CC          -4.3040    -2.1020     1.1230 c          1 0PI       0.714000
     27 O3          -4.7630    -1.7240     2.1930 o          1 0PI      -0.742000
     28 CB1         -1.7540    -2.1930     1.3900 c3         1 0PI      -0.067400
     29 CG1         -0.3350    -1.8980     0.8280 c3         1 0PI      -0.070700
     30 CD11         0.7570    -2.4170     1.7920 c3         1 0PI      -0.079600
     31 CD21        -0.1240    -2.4750    -0.5930 c3         1 0PI      -0.079600
     32 OXT         -4.9130    -2.8410     0.3610 o          1 0PI      -0.742000
     33 H21          3.4000    -2.0450    -2.0220 h1         1 0PI       0.047700
     34 H22          4.8570    -1.1100    -1.6230 h1         1 0PI       0.047700
     35 H41          2.7440    -4.0180    -0.7020 ha         1 0PI       0.118000
     36 H51          3.4710    -5.8230     0.8430 ha         1 0PI       0.102000
     37 H61          5.5620    -5.5640     2.1750 ha         1 0PI       0.097000
     38 H71          6.9250    -3.4880     1.9590 ha         1 0PI       0.102000
     39 H81          6.2030    -1.6740     0.4170 ha         1 0PI       0.118000
     40 HN2          1.8310     0.7300     0.7080 hn         1 0PI       0.332500
     41 H1           1.6540     3.0640    -0.9620 h1         1 0PI       0.070200
     42 H2           0.3160     1.9800    -1.4040 h1         1 0PI       0.070200
     43 HA          -2.7100     2.3790     1.4620 h1         1 0PI       0.044700
     44 HB1         -3.5810     3.3810    -1.2850 hc         1 0PI       0.047700
     45 HB2         -4.5970     2.2730    -0.3840 hc         1 0PI       0.047700
     46 HG          -4.7070     3.8330     1.5370 hc         1 0PI       0.038700
     47 HD11        -3.9980     6.2350     1.2610 hc         1 0PI       0.024367
     48 HD12        -2.6280     5.1240     1.3530 hc         1 0PI       0.024367
     49 HD13        -3.1260     5.7890    -0.2210 hc         1 0PI       0.024367
     50 HD21        -6.4840     3.8560    -0.1950 hc         1 0PI       0.024367
     51 HD22        -6.2480     5.4720     0.4950 hc         1 0PI       0.024367
     52 HD23        -5.5950     5.0910    -1.1130 hc         1 0PI       0.024367
     53 H           -3.3470     0.3270     1.6750 hn         1 0PI       0.327500
     54 HA1         -2.8660    -1.7400    -0.4240 h1         1 0PI       0.061700
     55 HB21        -1.7940    -1.8910     2.4440 hc         1 0PI       0.033200
     56 HB3         -1.9110    -3.2780     1.3780 hc         1 0PI       0.033200
     57 HG1         -0.2150    -0.8090     0.7670 hc         1 0PI       0.090700
     58 HD14         1.7570    -2.1570     1.4250 hc         1 0PI       0.019700
     59 HD15         0.6410    -1.9710     2.7880 hc         1 0PI       0.019700
     60 HD16         0.7030    -3.5070     1.8950 hc         1 0PI       0.019700
     61 HD24        -0.8330    -2.0470    -1.3090 hc         1 0PI       0.019700
     62 HD25         0.8850    -2.2490    -0.9560 hc         1 0PI       0.019700
     63 HD26        -0.2500    -3.5640    -0.5940 hc         1 0PI       0.019700
@<TRIPOS>BOND
     1     1     2 2   
     2     1     3 1   
     3     1    11 1   
     4     3     4 1   
     5     4     5 1   
     6     4    33 1   
     7     4    34 1   
     8     5     6 ar  
     9     5    10 ar  
    10     6     7 ar  
    11     6    35 1   
    12     7     8 ar  
    13     7    36 1   
    14     8     9 ar  
    15     8    37 1   
    16     9    10 ar  
    17     9    38 1   
    18    10    39 1   
    19    11    12 1   
    20    11    40 1   
    21    12    13 1   
    22    12    41 1   
    23    12    42 1   
    24    13    14 1   
    25    13    15 1   
    26    13    16 1   
    27    16    17 1   
    28    17    18 1   
    29    17    20 1   
    30    17    43 1   
    31    18    19 2   
    32    18    24 1   
    33    20    21 1   
    34    20    44 1   
    35    20    45 1   
    36    21    22 1   
    37    21    23 1   
    38    21    46 1   
    39    22    47 1   
    40    22    48 1   
    41    22    49 1   
    42    23    50 1   
    43    23    51 1   
    44    23    52 1   
    45    24    25 1   
    46    24    53 1   
    47    25    26 1   
    48    25    28 1   
    49    25    54 1   
    50    26    27 1   
    51    26    32 1   
    52    28    29 1   
    53    28    55 1   
    54    28    56 1   
    55    29    30 1   
    56    29    31 1   
    57    29    57 1   
    58    30    58 1   
    59    30    59 1   
    60    30    60 1   
    61    31    61 1   
    62    31    62 1   
    63    31    63 1   
@<TRIPOS>SUBSTRUCTURE
     1 0PI         1 TEMP              0 ****  ****    0 ROOT
