@<TRIPOS>MOLECULE
0PI
   63    63     1     0     0
SMALL
bcc


@<TRIPOS>ATOM
      1 C1           2.4410    -0.8240    -0.5760 c          1 0PI       0.732100
      2 O1           1.9400    -1.4220    -1.5090 o          1 0PI      -0.618000
      3 O2           3.6460    -1.1230    -0.0660 os         1 0PI      -0.447900
      4 C2           4.3610    -2.1930    -0.6930 c3         1 0PI       0.205700
      5 C3           5.6510    -2.3540     0.0520 ca         1 0PI      -0.075300
      6 C4           5.7680    -3.2930     1.0720 ca         1 0PI      -0.103500
      7 C5           6.9580    -3.4270     1.7760 ca         1 0PI      -0.141000
      8 C6           8.0420    -2.6170     1.4670 ca         1 0PI      -0.135000
      9 C7           7.9330    -1.6760     0.4510 ca         1 0PI      -0.141000
     10 C8           6.7430    -1.5460    -0.2510 ca         1 0PI      -0.103500
     11 N            1.8780     0.1970     0.0870 ns         1 0PI      -0.503900
     12 C            0.6000     0.7570    -0.2910 c3         1 0PI      -0.094200
     13 P           -0.1170     1.6440     1.1550 p5         1 0PI       1.245600
     14 O11          0.9230     2.6240     1.6250 o          1 0PI      -0.823500
     15 O21         -0.7470     0.6750     2.1150 o          1 0PI      -0.823500
     16 OS          -1.2980     2.5210     0.4030 os         1 0PI      -0.572200
     17 CA          -2.6620     2.2050     0.5600 c3         1 0PI       0.144100
     18 C9          -2.9820     0.9080    -0.1850 c          1 0PI       0.629100
     19 O           -2.5330     0.7080    -1.3080 o          1 0PI      -0.659100
     20 CB          -3.5110     3.3340    -0.0170 c3         1 0PI      -0.070400
     21 CG          -3.6260     4.5900     0.8510 c3         1 0PI      -0.053700
     22 CD1         -2.3060     5.3310     1.0500 c3         1 0PI      -0.081100
     23 CD2         -4.6640     5.5300     0.2420 c3         1 0PI      -0.081100
     24 N1          -3.8030     0.0800     0.4640 ns         1 0PI      -0.514900
     25 CA1         -4.3000    -1.1830    -0.0310 c3         1 0PI      -0.032300
     26 CC          -5.8100    -1.3250     0.2760 c          1 0PI       0.924600
     27 O3          -6.2770    -0.5960     1.1720 o          1 0PI      -0.847300
     28 CB1         -3.5570    -2.3630     0.6170 c3         1 0PI      -0.067400
     29 CG1         -2.0400    -2.3890     0.4300 c3         1 0PI      -0.070700
     30 CD11        -1.4270    -3.4710     1.3160 c3         1 0PI      -0.079600
     31 CD21        -1.6400    -2.6170    -1.0240 c3         1 0PI      -0.079600
     32 OXT         -6.4140    -2.1960    -0.3770 o          1 0PI      -0.847300
     33 H21          3.7750    -3.1140    -0.6560 h1         1 0PI       0.047700
     34 H22          4.5490    -1.9540    -1.7420 h1         1 0PI       0.047700
     35 H41          4.9260    -3.9310     1.3160 ha         1 0PI       0.136000
     36 H51          7.0360    -4.1640     2.5640 ha         1 0PI       0.120000
     37 H61          8.9710    -2.7210     2.0130 ha         1 0PI       0.115000
     38 H71          8.7770    -1.0440     0.2020 ha         1 0PI       0.120000
     39 H81          6.6650    -0.8150    -1.0470 ha         1 0PI       0.136000
     40 HN2          2.4360     0.7050     0.7560 hn         1 0PI       0.332500
     41 H1           0.7020     1.4510    -1.1320 h1         1 0PI       0.070200
     42 H2          -0.0690    -0.0410    -0.6110 h1         1 0PI       0.070200
     43 HA          -2.9120     2.0850     1.6210 h1         1 0PI       0.044700
     44 HB1         -3.1340     3.5950    -1.0110 hc         1 0PI       0.047700
     45 HB2         -4.5230     2.9420    -0.1660 hc         1 0PI       0.047700
     46 HG          -3.9940     4.2770     1.8360 hc         1 0PI       0.038700
     47 HD11        -2.4700     6.2490     1.6170 hc         1 0PI       0.024367
     48 HD12        -1.5650     4.7380     1.5820 hc         1 0PI       0.024367
     49 HD13        -1.8710     5.6130     0.0870 hc         1 0PI       0.024367
     50 HD21        -5.6320     5.0390     0.1260 hc         1 0PI       0.024367
     51 HD22        -4.8100     6.4140     0.8660 hc         1 0PI       0.024367
     52 HD23        -4.3460     5.8730    -0.7450 hc         1 0PI       0.024367
     53 H           -4.1460     0.3500     1.3720 hn         1 0PI       0.327500
     54 HA1         -4.1540    -1.2040    -1.1120 h1         1 0PI       0.061700
     55 HB21        -3.7800    -2.3480     1.6910 hc         1 0PI       0.033200
     56 HB3         -3.9880    -3.2920     0.2280 hc         1 0PI       0.033200
     57 HG1         -1.6330    -1.4290     0.7630 hc         1 0PI       0.090700
     58 HD14        -0.3390    -3.4820     1.2240 hc         1 0PI       0.019700
     59 HD15        -1.6680    -3.3140     2.3690 hc         1 0PI       0.019700
     60 HD16        -1.7900    -4.4640     1.0370 hc         1 0PI       0.019700
     61 HD24        -2.0360    -1.8410    -1.6790 hc         1 0PI       0.019700
     62 HD25        -0.5540    -2.6060    -1.1330 hc         1 0PI       0.019700
     63 HD26        -2.0030    -3.5850    -1.3820 hc         1 0PI       0.019700
@<TRIPOS>BOND
     1     1     2 2   
     2     1     3 1   
     3     1    11 1   
     4     3     4 1   
     5     4     5 1   
     6     4    33 1   
     7     4    34 1   
     8     5     6 ar  
     9     5    10 ar  
    10     6     7 ar  
    11     6    35 1   
    12     7     8 ar  
    13     7    36 1   
    14     8     9 ar  
    15     8    37 1   
    16     9    10 ar  
    17     9    38 1   
    18    10    39 1   
    19    11    12 1   
    20    11    40 1   
    21    12    13 1   
    22    12    41 1   
    23    12    42 1   
    24    13    14 1   
    25    13    15 1   
    26    13    16 1   
    27    16    17 1   
    28    17    18 1   
    29    17    20 1   
    30    17    43 1   
    31    18    19 2   
    32    18    24 1   
    33    20    21 1   
    34    20    44 1   
    35    20    45 1   
    36    21    22 1   
    37    21    23 1   
    38    21    46 1   
    39    22    47 1   
    40    22    48 1   
    41    22    49 1   
    42    23    50 1   
    43    23    51 1   
    44    23    52 1   
    45    24    25 1   
    46    24    53 1   
    47    25    26 1   
    48    25    28 1   
    49    25    54 1   
    50    26    27 1   
    51    26    32 1   
    52    28    29 1   
    53    28    55 1   
    54    28    56 1   
    55    29    30 1   
    56    29    31 1   
    57    29    57 1   
    58    30    58 1   
    59    30    59 1   
    60    30    60 1   
    61    31    61 1   
    62    31    62 1   
    63    31    63 1   
@<TRIPOS>SUBSTRUCTURE
     1 0PI         1 TEMP              0 ****  ****    0 ROOT
