@<TRIPOS>MOLECULE
0PJ
   64    64     1     0     0
SMALL
bcc


@<TRIPOS>ATOM
      1 C1           3.6120     1.5060    -0.9420 c          1 0PJ       0.751100
      2 O1           3.5010     1.6080    -2.1460 o          1 0PJ      -0.600000
      3 O2           4.6650     0.9280    -0.3420 os         1 0PJ      -0.449900
      4 C2           5.6910     0.4090    -1.1890 c3         1 0PJ       0.206700
      5 C3           6.6090    -0.4050    -0.3270 ca         1 0PJ      -0.077300
      6 C4           6.1650    -1.6050     0.2270 ca         1 0PJ      -0.105000
      7 C5           7.0040    -2.3630     1.0290 ca         1 0PJ      -0.142500
      8 C6           8.3010    -1.9320     1.2850 ca         1 0PJ      -0.138000
      9 C7           8.7520    -0.7410     0.7360 ca         1 0PJ      -0.142500
     10 C8           7.9060     0.0200    -0.0640 ca         1 0PJ      -0.105000
     11 N            2.7500     1.9900    -0.0280 ns         1 0PJ      -0.507900
     12 C            1.3770     2.2980    -0.3770 c3         1 0PJ      -0.096200
     13 P            0.3210     0.7970    -0.1740 p5         1 0PJ       1.191500
     14 O11          0.1370     0.5510     1.3070 o          1 0PJ      -0.826500
     15 O21          0.9290    -0.2810    -1.0390 o          1 0PJ      -0.826500
     16 N1          -1.1600     1.3570    -0.8090 n7         1 0PJ      -0.916300
     17 CA          -2.4100     1.1010    -0.1380 c3         1 0PJ       0.157500
     18 C9          -3.0860    -0.1660    -0.6530 c          1 0PJ       0.649100
     19 O           -3.0290    -0.4920    -1.8330 o          1 0PJ      -0.631100
     20 CB          -3.3910     2.2700    -0.2900 c3         1 0PJ      -0.072400
     21 CG          -2.8710     3.5990     0.2570 c3         1 0PJ      -0.054700
     22 CD1         -3.9210     4.6870     0.0500 c3         1 0PJ      -0.085600
     23 CD2         -2.4830     3.5040     1.7300 c3         1 0PJ      -0.085600
     24 N2          -3.7440    -0.8730     0.2750 ns         1 0PJ      -0.527900
     25 CA1         -4.6640    -1.9330    -0.0540 c3         1 0PJ      -0.033300
     26 CC          -5.9820    -1.4090    -0.6810 c          1 0PJ       0.924600
     27 O3          -6.1880    -0.1830    -0.6610 o          1 0PJ      -0.843800
     28 CB1         -4.9600    -2.7640     1.1940 c3         1 0PJ      -0.065400
     29 CG1         -3.7340    -3.3430     1.9040 c3         1 0PJ      -0.066700
     30 CD11        -4.1740    -4.1300     3.1350 c3         1 0PJ      -0.080100
     31 CD21        -2.8890    -4.2140     0.9810 c3         1 0PJ      -0.080100
     32 OXT         -6.7330    -2.2930    -1.1420 o          1 0PJ      -0.843800
     33 H21          5.2540    -0.2120    -1.9740 h1         1 0PJ       0.049700
     34 H22          6.2360     1.2250    -1.6710 h1         1 0PJ       0.049700
     35 H41          5.1580    -1.9520     0.0240 ha         1 0PJ       0.142500
     36 H51          6.6490    -3.2940     1.4520 ha         1 0PJ       0.120500
     37 H61          8.9550    -2.5240     1.9110 ha         1 0PJ       0.114000
     38 H71          9.7610    -0.4000     0.9300 ha         1 0PJ       0.120500
     39 H81          8.2610     0.9520    -0.4880 ha         1 0PJ       0.142500
     40 HN2          2.9140     1.7300     0.9330 hn         1 0PJ       0.311500
     41 H1           1.0200     3.1080     0.2620 h1         1 0PJ       0.057200
     42 H2           1.3450     2.6660    -1.4020 h1         1 0PJ       0.057200
     43 H           -1.2430     1.2600    -1.8130 hn         1 0PJ       0.391800
     44 HA          -2.1880     0.9640     0.9220 h1         1 0PJ       0.074700
     45 HB2         -3.6370     2.3910    -1.3510 hc         1 0PJ       0.051200
     46 HB3         -4.3300     2.0090     0.2090 hc         1 0PJ       0.051200
     47 HG          -1.9760     3.8680    -0.3110 hc         1 0PJ       0.052700
     48 HD11        -4.8420     4.4460     0.5870 hc         1 0PJ       0.022200
     49 HD12        -3.5690     5.6540     0.4150 hc         1 0PJ       0.022200
     50 HD13        -4.1760     4.8050    -1.0050 hc         1 0PJ       0.022200
     51 HD21        -1.6540     2.8130     1.8910 hc         1 0PJ       0.022200
     52 HD22        -2.1770     4.4780     2.1160 hc         1 0PJ       0.022200
     53 HD23        -3.3260     3.1590     2.3360 hc         1 0PJ       0.022200
     54 H3          -3.8170    -0.4670     1.1940 hn         1 0PJ       0.289500
     55 HA1         -4.1810    -2.5780    -0.7930 h1         1 0PJ       0.063700
     56 HB21        -5.5240    -2.1520     1.9080 hc         1 0PJ       0.035700
     57 HB31        -5.6250    -3.5810     0.9020 hc         1 0PJ       0.035700
     58 HG1         -3.1090    -2.5120     2.2480 hc         1 0PJ       0.055700
     59 HD14        -4.7520    -3.5080     3.8210 hc         1 0PJ       0.020700
     60 HD15        -4.7990    -4.9810     2.8530 hc         1 0PJ       0.020700
     61 HD16        -3.3150    -4.5200     3.6850 hc         1 0PJ       0.020700
     62 HD24        -2.4890    -3.6480     0.1390 hc         1 0PJ       0.020700
     63 HD25        -2.0400    -4.6390     1.5190 hc         1 0PJ       0.020700
     64 HD26        -3.4760    -5.0430     0.5800 hc         1 0PJ       0.020700
@<TRIPOS>BOND
     1     1     2 2   
     2     1     3 1   
     3     1    11 1   
     4     3     4 1   
     5     4     5 1   
     6     4    33 1   
     7     4    34 1   
     8     5     6 ar  
     9     5    10 ar  
    10     6     7 ar  
    11     6    35 1   
    12     7     8 ar  
    13     7    36 1   
    14     8     9 ar  
    15     8    37 1   
    16     9    10 ar  
    17     9    38 1   
    18    10    39 1   
    19    11    12 1   
    20    11    40 1   
    21    12    13 1   
    22    12    41 1   
    23    12    42 1   
    24    13    14 1   
    25    13    15 1   
    26    13    16 1   
    27    16    17 1   
    28    16    43 1   
    29    17    18 1   
    30    17    20 1   
    31    17    44 1   
    32    18    19 2   
    33    18    24 1   
    34    20    21 1   
    35    20    45 1   
    36    20    46 1   
    37    21    22 1   
    38    21    23 1   
    39    21    47 1   
    40    22    48 1   
    41    22    49 1   
    42    22    50 1   
    43    23    51 1   
    44    23    52 1   
    45    23    53 1   
    46    24    25 1   
    47    24    54 1   
    48    25    26 1   
    49    25    28 1   
    50    25    55 1   
    51    26    27 1   
    52    26    32 1   
    53    28    29 1   
    54    28    56 1   
    55    28    57 1   
    56    29    30 1   
    57    29    31 1   
    58    29    58 1   
    59    30    59 1   
    60    30    60 1   
    61    30    61 1   
    62    31    62 1   
    63    31    63 1   
    64    31    64 1   
@<TRIPOS>SUBSTRUCTURE
     1 0PJ         1 TEMP              0 ****  ****    0 ROOT
