@<TRIPOS>MOLECULE
0PJ
   64    64     1     0     0
SMALL
No Charge or Current Charge


@<TRIPOS>ATOM
      1 C1           3.2650     0.0230    -0.6220 c          1 0PJ       0.635100
      2 O1           2.8620    -0.7090    -1.5130 o          1 0PJ      -0.551000
      3 O2           4.4550    -0.0940     0.0270 os         1 0PJ      -0.473100
      4 C2           5.3160    -1.1800    -0.3560 c3         1 0PJ       0.229900
      5 C3           6.5790    -1.1180     0.4920 ca         1 0PJ      -0.077300
      6 C4           6.6310    -1.7720     1.7400 ca         1 0PJ      -0.087000
      7 C5           7.7990    -1.7160     2.5210 ca         1 0PJ      -0.124500
      8 C6           8.9200    -1.0060     2.0620 ca         1 0PJ      -0.120000
      9 C7           8.8740    -0.3500     0.8210 ca         1 0PJ      -0.124500
     10 C8           7.7070    -0.4040     0.0380 ca         1 0PJ      -0.087000
     11 N            2.5970     1.1150    -0.1270 ns         1 0PJ      -0.440900
     12 C            1.2340     1.5500    -0.5430 c3         1 0PJ      -0.254000
     13 P           -0.1950     0.7710     0.3510 p5         1 0PJ       1.349300
     14 O11         -0.1390     0.9330     1.8300 o          1 0PJ      -0.826500
     15 O21         -0.4660    -0.6120    -0.1140 o          1 0PJ      -0.826500
     16 N1          -1.3910     1.7250    -0.2340 n7         1 0PJ      -0.971500
     17 CA          -2.8010     1.6070     0.2450 c3         1 0PJ       0.157500
     18 C9          -3.5100     0.2450    -0.1090 c          1 0PJ       0.582100
     19 O           -3.6660    -0.1390    -1.2650 o          1 0PJ      -0.631100
     20 CB          -3.6340     2.7940    -0.3140 c3         1 0PJ      -0.072400
     21 CG          -3.1900     4.2160     0.1380 c3         1 0PJ      -0.054700
     22 CD1         -4.0030     5.3060    -0.5970 c3         1 0PJ      -0.085600
     23 CD2         -3.2740     4.4140     1.6710 c3         1 0PJ      -0.085600
     24 N2          -3.9930    -0.4650     0.9760 ns         1 0PJ      -0.460900
     25 CA1         -4.8200    -1.6980     0.9130 c3         1 0PJ      -0.033300
     26 CC          -5.9780    -1.6150     1.9580 c          1 0PJ       0.714000
     27 O3          -5.7050    -1.3090     3.1120 o          1 0PJ      -0.738500
     28 CB1         -3.9800    -2.9890     1.1210 c3         1 0PJ      -0.065400
     29 CG1         -3.0460    -3.3940    -0.0530 c3         1 0PJ      -0.066700
     30 CD11        -2.0990    -4.5420     0.3650 c3         1 0PJ      -0.080100
     31 CD21        -3.8240    -3.7730    -1.3370 c3         1 0PJ      -0.080100
     32 OXT         -7.1250    -1.7660     1.5620 o          1 0PJ      -0.738500
     33 H21          4.8160    -2.1450    -0.1980 h1         1 0PJ       0.049700
     34 H22          5.5830    -1.1080    -1.4190 h1         1 0PJ       0.049700
     35 H41          5.7660    -2.3220     2.1030 ha         1 0PJ       0.124500
     36 H51          7.8330    -2.2230     3.4830 ha         1 0PJ       0.102500
     37 H61          9.8230    -0.9630     2.6670 ha         1 0PJ       0.096000
     38 H71          9.7410     0.2020     0.4650 ha         1 0PJ       0.102500
     39 H81          7.6780     0.1090    -0.9210 ha         1 0PJ       0.124500
     40 HN2          3.0720     1.6110     0.6190 hn         1 0PJ       0.311500
     41 H1           1.1470     2.6310    -0.3830 h1         1 0PJ       0.057200
     42 H2           1.0950     1.3460    -1.6110 h1         1 0PJ       0.057200
     43 H           -1.3750     1.3850    -1.1930 hn         1 0PJ       0.447000
     44 HA          -2.8190     1.6810     1.3410 h1         1 0PJ       0.074700
     45 HB2         -3.6150     2.7460    -1.4100 hc         1 0PJ       0.051200
     46 HB3         -4.6820     2.6490    -0.0220 hc         1 0PJ       0.051200
     47 HG          -2.1410     4.3540    -0.1530 hc         1 0PJ       0.052700
     48 HD11        -5.0690     5.2340    -0.3470 hc         1 0PJ       0.022200
     49 HD12        -3.6520     6.3070    -0.3190 hc         1 0PJ       0.022200
     50 HD13        -3.8980     5.2020    -1.6840 hc         1 0PJ       0.022200
     51 HD21        -2.5840     3.7430     2.1960 hc         1 0PJ       0.022200
     52 HD22        -3.0020     5.4410     1.9430 hc         1 0PJ       0.022200
     53 HD23        -4.2900     4.2220     2.0350 hc         1 0PJ       0.022200
     54 H3          -3.8240    -0.0680     1.8930 hn         1 0PJ       0.289500
     55 HA1         -5.3060    -1.7420    -0.0690 h1         1 0PJ       0.063700
     56 HB21        -3.3840    -2.8690     2.0350 hc         1 0PJ       0.035700
     57 HB31        -4.6660    -3.8230     1.3140 hc         1 0PJ       0.035700
     58 HG1         -2.4130    -2.5320    -0.2940 hc         1 0PJ       0.055700
     59 HD14        -1.5000    -4.2540     1.2380 hc         1 0PJ       0.020700
     60 HD15        -2.6690    -5.4440     0.6220 hc         1 0PJ       0.020700
     61 HD16        -1.4080    -4.7920    -0.4490 hc         1 0PJ       0.020700
     62 HD24        -4.4080    -2.9270    -1.7160 hc         1 0PJ       0.020700
     63 HD25        -3.1320    -4.0760    -2.1320 hc         1 0PJ       0.020700
     64 HD26        -4.5100    -4.6070    -1.1460 hc         1 0PJ       0.020700
@<TRIPOS>BOND
     1     1     2 2   
     2     1     3 1   
     3     1    11 1   
     4     3     4 1   
     5     4     5 1   
     6     4    33 1   
     7     4    34 1   
     8     5     6 ar  
     9     5    10 ar  
    10     6     7 ar  
    11     6    35 1   
    12     7     8 ar  
    13     7    36 1   
    14     8     9 ar  
    15     8    37 1   
    16     9    10 ar  
    17     9    38 1   
    18    10    39 1   
    19    11    12 1   
    20    11    40 1   
    21    12    13 1   
    22    12    41 1   
    23    12    42 1   
    24    13    14 1   
    25    13    15 1   
    26    13    16 1   
    27    16    17 1   
    28    16    43 1   
    29    17    18 1   
    30    17    20 1   
    31    17    44 1   
    32    18    19 2   
    33    18    24 1   
    34    20    21 1   
    35    20    45 1   
    36    20    46 1   
    37    21    22 1   
    38    21    23 1   
    39    21    47 1   
    40    22    48 1   
    41    22    49 1   
    42    22    50 1   
    43    23    51 1   
    44    23    52 1   
    45    23    53 1   
    46    24    25 1   
    47    24    54 1   
    48    25    26 1   
    49    25    28 1   
    50    25    55 1   
    51    26    27 1   
    52    26    32 1   
    53    28    29 1   
    54    28    56 1   
    55    28    57 1   
    56    29    30 1   
    57    29    31 1   
    58    29    58 1   
    59    30    59 1   
    60    30    60 1   
    61    30    61 1   
    62    31    62 1   
    63    31    63 1   
    64    31    64 1   
@<TRIPOS>SUBSTRUCTURE
     1 0PJ         1 TEMP              0 ****  ****    0 ROOT
