@<TRIPOS>MOLECULE
0PK
   68    69     1     0     0
SMALL
abcg2


@<TRIPOS>ATOM
      1 C1           2.7010    -0.9360    -0.0050 c          1 0PK       0.627100
      2 O1           2.4000    -1.2590     1.1250 o          1 0PK      -0.562000
      3 O2           3.9240    -1.1210    -0.5260 os         1 0PK      -0.469100
      4 C2           4.9250    -1.6230     0.3590 c3         1 0PK       0.227900
      5 C3           6.2420    -1.5160    -0.3490 ca         1 0PK      -0.074300
      6 C4           6.7780    -0.2640    -0.6430 ca         1 0PK      -0.088000
      7 C5           7.9970    -0.1550    -1.2930 ca         1 0PK      -0.122000
      8 C6           8.6990    -1.3000    -1.6560 ca         1 0PK      -0.118000
      9 C7           8.1730    -2.5500    -1.3660 ca         1 0PK      -0.122000
     10 C8           6.9470    -2.6550    -0.7190 ca         1 0PK      -0.088000
     11 N            1.8740    -0.3870    -0.9130 ns         1 0PK      -0.432900
     12 CA           0.5760     0.1520    -0.5690 c3         1 0PK      -0.222300
     13 P           -0.6070    -0.2740    -1.9390 p5         1 0PK       1.373300
     14 O1P         -0.8190    -1.7660    -1.9210 o          1 0PK      -0.816000
     15 O2P         -0.0790     0.4270    -3.1670 o          1 0PK      -0.816000
     16 CB           0.6650     1.6660    -0.3140 c3         1 0PK      -0.051100
     17 CG           1.6720     1.9950     0.7490 ca         1 0PK      -0.043300
     18 CD1          3.0000     2.2570     0.4210 ca         1 0PK      -0.104500
     19 CD2          1.3150     1.9720     2.0950 ca         1 0PK      -0.104500
     20 CE1          3.9490     2.4780     1.4110 ca         1 0PK      -0.118500
     21 CE2          2.2560     2.2010     3.0880 ca         1 0PK      -0.118500
     22 CZ           3.5800     2.4500     2.7490 ca         1 0PK      -0.136000
     23 N1          -2.0800     0.4620    -1.5230 n7         1 0PK      -0.963500
     24 CA1         -2.9920    -0.0840    -0.5390 c3         1 0PK       0.160500
     25 C           -4.4060     0.3530    -0.9080 c          1 0PK       0.594100
     26 O           -4.6830     1.5440    -1.0310 o          1 0PK      -0.684100
     27 CB1         -2.6870     0.3630     0.8960 c3         1 0PK      -0.097400
     28 CG1         -3.6620    -0.1080     1.9770 c3         1 0PK      -0.057700
     29 CD11        -3.7410    -1.6290     2.0750 c3         1 0PK      -0.085600
     30 CD21        -3.2520     0.4840     3.3220 c3         1 0PK      -0.085600
     31 N2          -5.2900    -0.6320    -1.0590 ns         1 0PK      -0.466900
     32 CA2         -6.7110    -0.4560    -1.2580 c3         1 0PK      -0.036300
     33 C9          -7.4410    -1.7570    -0.8420 c          1 0PK       0.713000
     34 O3          -6.7320    -2.7440    -0.5620 o          1 0PK      -0.736000
     35 CB2         -7.0490    -0.0930    -2.7020 c3         1 0PK      -0.076100
     36 OXT         -8.6820    -1.6980    -0.8440 o          1 0PK      -0.736000
     37 H21          4.9400    -1.0320     1.2780 h1         1 0PK       0.050700
     38 H22          4.7140    -2.6600     0.6300 h1         1 0PK       0.050700
     39 H41          6.2410     0.6340    -0.3580 ha         1 0PK       0.118500
     40 H51          8.4050     0.8230    -1.5120 ha         1 0PK       0.103000
     41 H61          9.6520    -1.2140    -2.1620 ha         1 0PK       0.098000
     42 H71          8.7130    -3.4460    -1.6440 ha         1 0PK       0.103000
     43 H81          6.5380    -3.6340    -0.4990 ha         1 0PK       0.118500
     44 HN2          2.2610    -0.1090    -1.8030 hn         1 0PK       0.328500
     45 HA           0.2460    -0.3450     0.3450 h1         1 0PK       0.083700
     46 HB1          0.9260     2.1630    -1.2520 hc         1 0PK       0.058700
     47 HB2         -0.3200     2.0350    -0.0200 hc         1 0PK       0.058700
     48 HD1          3.2970     2.2920    -0.6210 ha         1 0PK       0.114500
     49 HD2          0.2850     1.7650     2.3680 ha         1 0PK       0.114500
     50 HE1          4.9770     2.6810     1.1360 ha         1 0PK       0.092500
     51 HE2          1.9570     2.1830     4.1290 ha         1 0PK       0.092500
     52 HZ           4.3170     2.6260     3.5220 ha         1 0PK       0.089000
     53 H           -2.1100     1.4710    -1.5760 hn         1 0PK       0.442000
     54 HA1         -2.9130    -1.1710    -0.6030 h1         1 0PK       0.089700
     55 HB21        -1.6840     0.0070     1.1580 hc         1 0PK       0.031200
     56 HB3         -2.6360     1.4570     0.9110 hc         1 0PK       0.031200
     57 HG          -4.6630     0.2700     1.7390 hc         1 0PK       0.062700
     58 HD11        -4.3820    -1.9280     2.9060 hc         1 0PK       0.026533
     59 HD12        -4.1550    -2.0920     1.1780 hc         1 0PK       0.026533
     60 HD13        -2.7520    -2.0600     2.2490 hc         1 0PK       0.026533
     61 HD21        -3.2230     1.5750     3.2870 hc         1 0PK       0.026533
     62 HD22        -3.9490     0.1950     4.1120 hc         1 0PK       0.026533
     63 HD23        -2.2590     0.1340     3.6130 hc         1 0PK       0.026533
     64 H1          -5.0160    -1.5900    -0.8900 hn         1 0PK       0.342500
     65 HA2         -7.0590     0.3530    -0.6080 h1         1 0PK       0.038700
     66 HB11        -6.5370     0.8200    -3.0040 hc         1 0PK       0.021367
     67 HB22        -6.7500    -0.8900    -3.3860 hc         1 0PK       0.021367
     68 HB31        -8.1200     0.0690    -2.8130 hc         1 0PK       0.021367
@<TRIPOS>BOND
     1     1     2 2   
     2     1     3 1   
     3     1    11 1   
     4     3     4 1   
     5     4     5 1   
     6     4    37 1   
     7     4    38 1   
     8     5     6 ar  
     9     5    10 ar  
    10     6     7 ar  
    11     6    39 1   
    12     7     8 ar  
    13     7    40 1   
    14     8     9 ar  
    15     8    41 1   
    16     9    10 ar  
    17     9    42 1   
    18    10    43 1   
    19    11    12 1   
    20    11    44 1   
    21    12    13 1   
    22    12    16 1   
    23    12    45 1   
    24    13    14 1   
    25    13    15 1   
    26    13    23 1   
    27    16    17 1   
    28    16    46 1   
    29    16    47 1   
    30    17    18 ar  
    31    17    19 ar  
    32    18    20 ar  
    33    18    48 1   
    34    19    21 ar  
    35    19    49 1   
    36    20    22 ar  
    37    20    50 1   
    38    21    22 ar  
    39    21    51 1   
    40    22    52 1   
    41    23    24 1   
    42    23    53 1   
    43    24    25 1   
    44    24    27 1   
    45    24    54 1   
    46    25    26 2   
    47    25    31 1   
    48    27    28 1   
    49    27    55 1   
    50    27    56 1   
    51    28    29 1   
    52    28    30 1   
    53    28    57 1   
    54    29    58 1   
    55    29    59 1   
    56    29    60 1   
    57    30    61 1   
    58    30    62 1   
    59    30    63 1   
    60    31    32 1   
    61    31    64 1   
    62    32    33 1   
    63    32    35 1   
    64    32    65 1   
    65    33    34 1   
    66    33    36 1   
    67    35    66 1   
    68    35    67 1   
    69    35    68 1   
@<TRIPOS>SUBSTRUCTURE
     1 0PK         1 TEMP              0 ****  ****    0 ROOT
