@<TRIPOS>MOLECULE
0PK
   68    69     1     0     0
SMALL
No Charge or Current Charge


@<TRIPOS>ATOM
      1 C1           2.0690    -0.8310    -0.7030 c          1 0PK       0.627100
      2 O1           1.5520    -1.5850     0.1080 o          1 0PK      -0.562000
      3 O2           3.2460    -1.0480    -1.3510 os         1 0PK      -0.469100
      4 C2           3.9630    -2.2510    -1.0360 c3         1 0PK       0.227900
      5 C3           5.2530    -2.2730    -1.8460 ca         1 0PK      -0.074300
      6 C4           6.4070    -1.6260    -1.3590 ca         1 0PK      -0.088000
      7 C5           7.5990    -1.6470    -2.1050 ca         1 0PK      -0.122000
      8 C6           7.6440    -2.3120    -3.3410 ca         1 0PK      -0.118000
      9 C7           6.4960    -2.9560    -3.8330 ca         1 0PK      -0.122000
     10 C8           5.3040    -2.9360    -3.0880 ca         1 0PK      -0.088000
     11 N            1.5530     0.3700    -1.1190 ns         1 0PK      -0.432900
     12 CA           0.3050     1.0030    -0.6050 c3         1 0PK      -0.222300
     13 P           -0.8900     1.4810    -1.9670 p5         1 0PK       1.373300
     14 O1P         -1.3740     0.2910    -2.7190 o          1 0PK      -0.816000
     15 O2P         -0.3460     2.5870    -2.8000 o          1 0PK      -0.816000
     16 CB           0.6500     2.1430     0.3940 c3         1 0PK      -0.051100
     17 CG           1.5360     1.6750     1.5430 ca         1 0PK      -0.043300
     18 CD1          2.9230     1.9200     1.5250 ca         1 0PK      -0.104500
     19 CD2          0.9700     0.9860     2.6340 ca         1 0PK      -0.104500
     20 CE1          3.7360     1.4800     2.5840 ca         1 0PK      -0.118500
     21 CE2          1.7830     0.5470     3.6940 ca         1 0PK      -0.118500
     22 CZ           3.1660     0.7940     3.6690 ca         1 0PK      -0.136000
     23 N1          -2.1310     2.1040    -1.0860 n7         1 0PK      -0.963500
     24 CA1         -2.9000     1.3340    -0.0600 c3         1 0PK       0.160500
     25 C           -3.7410     0.1260    -0.6350 c          1 0PK       0.594100
     26 O           -4.6750     0.2650    -1.4230 o          1 0PK      -0.684100
     27 CB1         -3.7920     2.3330     0.7260 c3         1 0PK      -0.097400
     28 CG1         -4.5960     1.7270     1.9130 c3         1 0PK      -0.057700
     29 CD11        -3.6870     1.0960     2.9960 c3         1 0PK      -0.085600
     30 CD21        -5.5310     2.7870     2.5380 c3         1 0PK      -0.085600
     31 N2          -3.3830    -1.1210    -0.1520 ns         1 0PK      -0.466900
     32 CA2         -4.0280    -2.4040    -0.5190 c3         1 0PK      -0.036300
     33 C9          -3.8390    -3.4660     0.6120 c          1 0PK       0.713000
     34 O3          -2.7920    -3.4640     1.2470 o          1 0PK      -0.736000
     35 CB2         -3.5110    -2.9260    -1.8770 c3         1 0PK      -0.076100
     36 OXT         -4.7900    -4.1810     0.8970 o          1 0PK      -0.736000
     37 H21          4.2050    -2.2900     0.0350 h1         1 0PK       0.050700
     38 H22          3.3610    -3.1380    -1.2770 h1         1 0PK       0.050700
     39 H41          6.3780    -1.1070    -0.4030 ha         1 0PK       0.118500
     40 H51          8.4860    -1.1460    -1.7240 ha         1 0PK       0.103000
     41 H61          8.5660    -2.3280    -3.9180 ha         1 0PK       0.098000
     42 H71          6.5300    -3.4700    -4.7910 ha         1 0PK       0.103000
     43 H81          4.4190    -3.4350    -3.4770 ha         1 0PK       0.118500
     44 HN2          2.1060     0.8580    -1.8140 hn         1 0PK       0.328500
     45 HA          -0.2520     0.2310    -0.0620 h1         1 0PK       0.083700
     46 HB1          1.1390     2.9610    -0.1520 hc         1 0PK       0.058700
     47 HB2         -0.2690     2.5700     0.8120 hc         1 0PK       0.058700
     48 HD1          3.3730     2.4470     0.6860 ha         1 0PK       0.114500
     49 HD2         -0.0990     0.7880     2.6590 ha         1 0PK       0.114500
     50 HE1          4.8060     1.6700     2.5620 ha         1 0PK       0.092500
     51 HE2          1.3410     0.0150     4.5330 ha         1 0PK       0.092500
     52 HZ           3.7940     0.4530     4.4890 ha         1 0PK       0.089000
     53 H           -1.6780     2.9050    -0.6580 hn         1 0PK       0.442000
     54 HA1         -2.1990     0.9020     0.6650 h1         1 0PK       0.089700
     55 HB21        -3.1610     3.1440     1.1130 hc         1 0PK       0.031200
     56 HB3         -4.4960     2.7970     0.0240 hc         1 0PK       0.031200
     57 HG          -5.2410     0.9310     1.5200 hc         1 0PK       0.062700
     58 HD11        -4.2860     0.7370     3.8410 hc         1 0PK       0.026533
     59 HD12        -3.1320     0.2370     2.6010 hc         1 0PK       0.026533
     60 HD13        -2.9650     1.8290     3.3770 hc         1 0PK       0.026533
     61 HD21        -6.2140     3.1960     1.7840 hc         1 0PK       0.026533
     62 HD22        -6.1390     2.3460     3.3380 hc         1 0PK       0.026533
     63 HD23        -4.9530     3.6160     2.9640 hc         1 0PK       0.026533
     64 H1          -2.6130    -1.1620     0.5060 hn         1 0PK       0.342500
     65 HA2         -5.1070    -2.2240    -0.6100 h1         1 0PK       0.038700
     66 HB11        -3.7000    -2.1970    -2.6730 hc         1 0PK       0.021367
     67 HB22        -2.4320    -3.1180    -1.8330 hc         1 0PK       0.021367
     68 HB31        -4.0150    -3.8620    -2.1450 hc         1 0PK       0.021367
@<TRIPOS>BOND
     1     1     2 2   
     2     1     3 1   
     3     1    11 1   
     4     3     4 1   
     5     4     5 1   
     6     4    37 1   
     7     4    38 1   
     8     5     6 ar  
     9     5    10 ar  
    10     6     7 ar  
    11     6    39 1   
    12     7     8 ar  
    13     7    40 1   
    14     8     9 ar  
    15     8    41 1   
    16     9    10 ar  
    17     9    42 1   
    18    10    43 1   
    19    11    12 1   
    20    11    44 1   
    21    12    13 1   
    22    12    16 1   
    23    12    45 1   
    24    13    14 1   
    25    13    15 1   
    26    13    23 1   
    27    16    17 1   
    28    16    46 1   
    29    16    47 1   
    30    17    18 ar  
    31    17    19 ar  
    32    18    20 ar  
    33    18    48 1   
    34    19    21 ar  
    35    19    49 1   
    36    20    22 ar  
    37    20    50 1   
    38    21    22 ar  
    39    21    51 1   
    40    22    52 1   
    41    23    24 1   
    42    23    53 1   
    43    24    25 1   
    44    24    27 1   
    45    24    54 1   
    46    25    26 2   
    47    25    31 1   
    48    27    28 1   
    49    27    55 1   
    50    27    56 1   
    51    28    29 1   
    52    28    30 1   
    53    28    57 1   
    54    29    58 1   
    55    29    59 1   
    56    29    60 1   
    57    30    61 1   
    58    30    62 1   
    59    30    63 1   
    60    31    32 1   
    61    31    64 1   
    62    32    33 1   
    63    32    35 1   
    64    32    65 1   
    65    33    34 1   
    66    33    36 1   
    67    35    66 1   
    68    35    67 1   
    69    35    68 1   
@<TRIPOS>SUBSTRUCTURE
     1 0PK         1 TEMP              0 ****  ****    0 ROOT
