@<TRIPOS>MOLECULE
0PL
   56    59     1     0     0
SMALL
No Charge or Current Charge


@<TRIPOS>ATOM
      1 C1          -4.3810    -0.9970     3.0790 c3         1 0PL       0.177100
      2 N2          -3.4880    -1.2700     1.9340 n3         1 0PL      -0.701500
      3 C3          -2.1130    -0.7560     2.1240 c3         1 0PL       0.256100
      4 C4          -1.0490    -1.3980     1.2330 ca         1 0PL      -0.106300
      5 C5          -0.3250    -0.5910     0.3320 ca         1 0PL      -0.074000
      6 C6           0.6670    -1.1310    -0.5100 ca         1 0PL      -0.024300
      7 C7           0.9650    -2.5070    -0.4070 ca         1 0PL      -0.059000
      8 C8           0.2700    -3.3160     0.5070 ca         1 0PL      -0.115000
      9 C9          -0.7300    -2.7710     1.3270 ca         1 0PL       0.138000
     10 Cl1         -1.5270    -3.8350     2.4880 cl         1 0PL      -0.241000
     11 C11          1.4120    -0.1820    -1.4610 c3         1 0PL       0.035900
     12 C13          1.9610    -0.8130    -2.7740 c3         1 0PL      -0.209400
     13 C14          0.8120    -1.3280    -3.6570 c          1 0PL       0.713000
     14 O15          0.2550    -0.5290    -4.3930 o          1 0PL      -0.726000
     15 O16          0.4990    -2.5050    -3.5740 o          1 0PL      -0.726000
     16 C17          2.5140     0.5440    -0.6870 ca         1 0PL      -0.075300
     17 C18          3.6550    -0.1630    -0.2200 ca         1 0PL      -0.057000
     18 C19          4.6660     0.5020     0.5060 ca         1 0PL      -0.133000
     19 C20          4.4930     1.8710     0.7440 ca         1 0PL      -0.091200
     20 N21          5.2690     2.7770     1.4020 na         1 0PL       0.060600
     21 C22          6.5570     2.4960     2.0510 c3         1 0PL       0.078900
     22 N23          4.6540     4.0200     1.3680 nc         1 0PL      -0.191400
     23 N24          3.5070     3.8920     0.6980 nd         1 0PL      -0.229400
     24 C25          3.4090     2.5620     0.3120 ca         1 0PL       0.015400
     25 C26          2.3890     1.9290    -0.4110 ca         1 0PL      -0.048000
     26 S27         -4.2000    -1.1060     0.3810 sy         1 0PL       1.142600
     27 O28         -3.8440    -2.3050    -0.3860 o          1 0PL      -0.518500
     28 O29         -5.6070    -0.7530     0.6140 o          1 0PL      -0.518500
     29 C30         -3.4330     0.3610    -0.3400 ca         1 0PL      -0.300500
     30 C31         -2.6810     0.2590    -1.5300 ca         1 0PL      -0.016000
     31 C32         -2.1050     1.4090    -2.0970 ca         1 0PL      -0.136000
     32 C33         -2.2790     2.6620    -1.4870 ca         1 0PL      -0.067000
     33 C34         -3.0420     2.7680    -0.3120 ca         1 0PL      -0.136000
     34 C35         -3.6280     1.6240     0.2570 ca         1 0PL      -0.016000
     35 H11          0.6860     0.5720    -1.7910 hc         1 0PL       0.091700
     36 H1          -3.8860    -1.2470     4.0270 h1         1 0PL       0.047367
     37 H1A         -4.6660     0.0630     3.1130 h1         1 0PL       0.047367
     38 H1B         -5.2950    -1.6030     3.0200 h1         1 0PL       0.047367
     39 H3          -2.0900     0.3340     1.9990 h1         1 0PL       0.045200
     40 H3A         -1.8010    -0.9390     3.1610 h1         1 0PL       0.045200
     41 H5          -0.5380     0.4750     0.2840 ha         1 0PL       0.102000
     42 H7           1.7380    -2.9610    -1.0210 ha         1 0PL       0.152000
     43 H8           0.5150    -4.3720     0.5860 ha         1 0PL       0.121000
     44 H13          2.4640     0.0150    -3.2880 hc         1 0PL       0.025200
     45 H13A         2.6470    -1.6240    -2.5070 hc         1 0PL       0.025200
     46 H18          3.7560    -1.2280    -0.4160 ha         1 0PL       0.126000
     47 H19          5.5420    -0.0330     0.8660 ha         1 0PL       0.114000
     48 H22          6.4150     1.7430     2.8340 h1         1 0PL       0.052700
     49 H22A         7.2660     2.1170     1.3050 h1         1 0PL       0.052700
     50 H22B         6.9570     3.4140     2.4980 h1         1 0PL       0.052700
     51 H26          1.5240     2.4970    -0.7470 ha         1 0PL       0.137000
     52 H31         -2.5330    -0.7060    -2.0140 ha         1 0PL       0.138000
     53 H32         -1.5220     1.3270    -3.0110 ha         1 0PL       0.114500
     54 H33         -1.8290     3.5490    -1.9270 ha         1 0PL       0.109000
     55 H34         -3.1850     3.7400     0.1550 ha         1 0PL       0.114500
     56 H35         -4.2240     1.7210     1.1630 ha         1 0PL       0.138000
@<TRIPOS>BOND
     1     1     2 1   
     2     1    36 1   
     3     1    37 1   
     4     1    38 1   
     5     2     3 1   
     6     2    26 1   
     7     3     4 1   
     8     3    39 1   
     9     3    40 1   
    10     4     5 ar  
    11     4     9 ar  
    12     5     6 ar  
    13     5    41 1   
    14     6     7 ar  
    15     6    11 1   
    16     7     8 ar  
    17     7    42 1   
    18     8     9 ar  
    19     8    43 1   
    20     9    10 1   
    21    11    12 1   
    22    11    16 1   
    23    11    35 1   
    24    12    13 1   
    25    12    44 1   
    26    12    45 1   
    27    13    14 1   
    28    13    15 1   
    29    16    17 ar  
    30    16    25 ar  
    31    17    18 ar  
    32    17    46 1   
    33    18    19 ar  
    34    18    47 1   
    35    19    20 1   
    36    19    24 ar  
    37    20    21 1   
    38    20    22 1   
    39    21    48 1   
    40    21    49 1   
    41    21    50 1   
    42    22    23 2   
    43    23    24 1   
    44    24    25 ar  
    45    25    51 1   
    46    26    27 2   
    47    26    28 2   
    48    26    29 1   
    49    29    30 ar  
    50    29    34 ar  
    51    30    31 ar  
    52    30    52 1   
    53    31    32 ar  
    54    31    53 1   
    55    32    33 ar  
    56    32    54 1   
    57    33    34 ar  
    58    33    55 1   
    59    34    56 1   
@<TRIPOS>SUBSTRUCTURE
     1 0PL         1 TEMP              0 ****  ****    0 ROOT
