@<TRIPOS>MOLECULE
0PL
   56    59     1     0     0
SMALL
bcc


@<TRIPOS>ATOM
      1 C1          -4.0900    -0.7910     2.4870 c3         1 0PL       0.177100
      2 N2          -3.2020    -0.9450     1.3390 n3         1 0PL      -0.701500
      3 C3          -1.8010    -0.5920     1.5950 c3         1 0PL       0.256100
      4 C4          -0.8070    -1.4870     0.9140 ca         1 0PL      -0.106300
      5 C5           0.0870    -0.9670    -0.0090 ca         1 0PL      -0.092000
      6 C6           1.0560    -1.7400    -0.6420 ca         1 0PL      -0.024300
      7 C7           1.1160    -3.0910    -0.3260 ca         1 0PL      -0.077000
      8 C8           0.2450    -3.6430     0.6050 ca         1 0PL      -0.133000
      9 C9          -0.7010    -2.8420     1.2190 ca         1 0PL       0.046400
     10 CL1         -1.7500    -3.5500     2.4070 cl         1 0PL      -0.149400
     11 C11          1.9920    -1.0640    -1.6240 c3         1 0PL       0.035900
     12 C13          2.8430    -2.0280    -2.4470 c3         1 0PL      -0.209400
     13 C14          2.0360    -2.9700    -3.3610 c          1 0PL       0.923600
     14 O15          0.9640    -2.5300    -3.8180 o          1 0PL      -0.831300
     15 O16          2.5460    -4.0850    -3.5970 o          1 0PL      -0.831300
     16 C17          2.8630    -0.0600    -0.9000 ca         1 0PL      -0.075300
     17 C18          3.6860    -0.4960     0.1710 ca         1 0PL      -0.075000
     18 C19          4.5240     0.3480     0.8600 ca         1 0PL      -0.151000
     19 C20          4.5270     1.6830     0.4480 ca         1 0PL      -0.091200
     20 N21          5.1890     2.7920     0.8530 na         1 0PL       0.089900
     21 C22          6.1620     2.9180     1.9090 c3         1 0PL       0.049600
     22 N23          4.8240     3.8340     0.1170 nc         1 0PL      -0.191400
     23 N24          3.9560     3.4750    -0.7520 nd         1 0PL      -0.229400
     24 C25          3.7270     2.1390    -0.5990 ca         1 0PL       0.015400
     25 C26          2.8800     1.2610    -1.2880 ca         1 0PL      -0.066000
     26 S27         -3.8140    -0.4950    -0.1310 sy         1 0PL       1.284200
     27 O28         -2.8290    -0.8610    -1.1320 o          1 0PL      -0.589300
     28 O29         -5.1610    -1.0340    -0.2130 o          1 0PL      -0.589300
     29 C30         -3.9320     1.2730    -0.0980 ca         1 0PL      -0.300500
     30 C31         -2.8800     2.0390    -0.5870 ca         1 0PL      -0.034000
     31 C32         -2.9590     3.4220    -0.5100 ca         1 0PL      -0.154000
     32 C33         -4.0790     4.0270     0.0460 ca         1 0PL      -0.085000
     33 C34         -5.1280     3.2510     0.5240 ca         1 0PL      -0.154000
     34 C35         -5.0610     1.8680     0.4530 ca         1 0PL      -0.034000
     35 H11          1.3650    -0.5110    -2.3290 hc         1 0PL       0.091700
     36 H1          -3.6890    -1.3900     3.3020 h1         1 0PL       0.047367
     37 H1A         -4.1720     0.2450     2.8260 h1         1 0PL       0.047367
     38 H1B         -5.0820    -1.1710     2.2580 h1         1 0PL       0.047367
     39 H3          -1.5930     0.4550     1.3450 h1         1 0PL       0.045200
     40 H3A         -1.6700    -0.6650     2.6750 h1         1 0PL       0.045200
     41 H5           0.0210     0.0900    -0.2470 ha         1 0PL       0.120000
     42 H7           1.8350    -3.7440    -0.8010 ha         1 0PL       0.170000
     43 H8           0.3100    -4.6940     0.8500 ha         1 0PL       0.139000
     44 H13          3.4970    -1.4270    -3.0890 hc         1 0PL       0.025200
     45 H13A         3.5170    -2.6040    -1.8060 hc         1 0PL       0.025200
     46 H18          3.6490    -1.5380     0.4630 ha         1 0PL       0.144000
     47 H19          5.1380    -0.0100     1.6760 ha         1 0PL       0.132000
     48 H22          5.7120     2.6770     2.8710 h1         1 0PL       0.052700
     49 H22A         7.0030     2.2510     1.7280 h1         1 0PL       0.052700
     50 H22B         6.5190     3.9430     1.9280 h1         1 0PL       0.052700
     51 H26          2.2610     1.6130    -2.1040 ha         1 0PL       0.155000
     52 H31         -2.0130     1.5740    -1.0350 ha         1 0PL       0.156000
     53 H32         -2.1450     4.0240    -0.8900 ha         1 0PL       0.132500
     54 H33         -4.1370     5.1060     0.1020 ha         1 0PL       0.127000
     55 H34         -6.0030     3.7220     0.9490 ha         1 0PL       0.132500
     56 H35         -5.8870     1.2710     0.8170 ha         1 0PL       0.156000
@<TRIPOS>BOND
     1     1     2 1   
     2     1    36 1   
     3     1    37 1   
     4     1    38 1   
     5     2     3 1   
     6     2    26 1   
     7     3     4 1   
     8     3    39 1   
     9     3    40 1   
    10     4     5 ar  
    11     4     9 ar  
    12     5     6 ar  
    13     5    41 1   
    14     6     7 ar  
    15     6    11 1   
    16     7     8 ar  
    17     7    42 1   
    18     8     9 ar  
    19     8    43 1   
    20     9    10 1   
    21    11    12 1   
    22    11    16 1   
    23    11    35 1   
    24    12    13 1   
    25    12    44 1   
    26    12    45 1   
    27    13    14 1   
    28    13    15 1   
    29    16    17 ar  
    30    16    25 ar  
    31    17    18 ar  
    32    17    46 1   
    33    18    19 ar  
    34    18    47 1   
    35    19    20 1   
    36    19    24 ar  
    37    20    21 1   
    38    20    22 1   
    39    21    48 1   
    40    21    49 1   
    41    21    50 1   
    42    22    23 2   
    43    23    24 1   
    44    24    25 ar  
    45    25    51 1   
    46    26    27 2   
    47    26    28 2   
    48    26    29 1   
    49    29    30 ar  
    50    29    34 ar  
    51    30    31 ar  
    52    30    52 1   
    53    31    32 ar  
    54    31    53 1   
    55    32    33 ar  
    56    32    54 1   
    57    33    34 ar  
    58    33    55 1   
    59    34    56 1   
@<TRIPOS>SUBSTRUCTURE
     1 0PL         1 TEMP              0 ****  ****    0 ROOT
