@<TRIPOS>MOLECULE
0PN
   79    79     1     0     0
SMALL
bcc


@<TRIPOS>ATOM
      1 C1           7.0700    22.4260   -12.8940 c          1 0PN       0.754100
      2 O1           6.4780    23.3830   -13.3460 o          1 0PN      -0.516000
      3 O2           6.3700    21.4830   -12.2570 os         1 0PN      -0.410900
      4 C2           7.0040    20.3740   -11.6050 c3         1 0PN       0.198700
      5 C3           5.9290    19.6160   -10.8890 ca         1 0PN      -0.104300
      6 C4           5.3390    18.5020   -11.4770 ca         1 0PN      -0.099000
      7 C5           4.3140    17.8250   -10.8290 ca         1 0PN      -0.130000
      8 C6           3.8700    18.2610    -9.5890 ca         1 0PN      -0.109000
      9 C7           4.4560    19.3710    -8.9940 ca         1 0PN      -0.130000
     10 C8           5.4810    20.0450    -9.6430 ca         1 0PN      -0.099000
     11 N            8.4090    22.2750   -12.9790 ns         1 0PN      -0.620900
     12 CA           9.2230    23.2300   -13.7080 c3         1 0PN       0.054700
     13 C            9.0110    24.6390   -13.1270 c          1 0PN       0.676100
     14 O            8.8440    25.6250   -13.8220 o          1 0PN      -0.571100
     15 CB           9.0790    23.1730   -15.2380 c3         1 0PN      -0.067700
     16 CG1         10.2950    23.8150   -15.9040 c3         1 0PN      -0.090600
     17 CG2          8.9420    21.7330   -15.7260 c3         1 0PN      -0.090600
     18 N1           9.0840    24.6920   -11.7830 ns         1 0PN      -0.567900
     19 CA1          8.8250    25.8930   -11.0290 c3         1 0PN       0.037700
     20 C9           9.8510    26.0050    -9.9090 c          1 0PN       0.672100
     21 O3          10.1540    25.0230    -9.2380 o          1 0PN      -0.703100
     22 CB1          7.4160    25.8990   -10.4350 c3         1 0PN      -0.112100
     23 N2          10.3390    27.2330    -9.6980 ns         1 0PN      -0.545900
     24 CA2         11.2250    27.5290    -8.5860 c3         1 0PN       0.010700
     25 CC          11.1890    29.0150    -8.2270 c          1 0PN       0.659100
     26 O4          11.0150    29.3650    -7.0710 o          1 0PN      -0.589100
     27 CB2         12.6760    27.0820    -8.8550 c3         1 0PN      -0.085400
     28 CG          13.4970    26.8780    -7.5780 c3         1 0PN      -0.105400
     29 CD          13.4510    25.4410    -7.0690 c3         1 0PN       0.025300
     30 NE          12.1070    24.9400    -6.8350 nu         1 0PN      -0.397100
     31 CZ          11.3820    25.1420    -5.7390 cz         1 0PN       0.527300
     32 NH1         10.0970    24.8010    -5.7470 nv         1 0PN      -0.512700
     33 NH2         11.9160    25.6480    -4.6370 nv         1 0PN      -0.512700
     34 N3          11.3780    29.8690    -9.2470 ns         1 0PN      -0.513900
     35 CA3         11.6400    31.2790    -9.0500 c3         1 0PN      -0.094300
     36 CE          12.8800    31.5350    -8.1470 c          1 0PN       0.935600
     37 O5          12.9200    32.6710    -7.6070 o          1 0PN      -0.815800
     38 CB3         10.3930    32.0530    -8.6010 c3         1 0PN       0.163400
     39 OG          10.6320    33.4370    -8.6080 oh         1 0PN      -0.645800
     40 OXT         13.7380    30.6510    -8.0750 o          1 0PN      -0.815800
     41 H21          7.4950    19.7310   -12.3410 h1         1 0PN       0.037200
     42 H22          7.7540    20.7340   -10.8950 h1         1 0PN       0.037200
     43 H41          5.6850    18.1600   -12.4450 ha         1 0PN       0.130000
     44 H51          3.8640    16.9570   -11.2940 ha         1 0PN       0.135000
     45 H61          3.0720    17.7330    -9.0820 ha         1 0PN       0.135000
     46 H71          4.1160    19.7110    -8.0240 ha         1 0PN       0.135000
     47 H81          5.9390    20.9090    -9.1750 ha         1 0PN       0.130000
     48 H            8.8550    21.4120   -12.7120 hn         1 0PN       0.316500
     49 HA          10.2550    22.9490   -13.4690 h1         1 0PN       0.060700
     50 HB           8.1840    23.7250   -15.5330 hc         1 0PN       0.091700
     51 HG11        10.4430    24.8480   -15.5980 hc         1 0PN       0.037367
     52 HG12        11.2040    23.2570   -15.6630 hc         1 0PN       0.037367
     53 HG13        10.1840    23.8040   -16.9890 hc         1 0PN       0.037367
     54 HG21         8.9300    21.7090   -16.8160 hc         1 0PN       0.037367
     55 HG22         9.7830    21.1200   -15.3940 hc         1 0PN       0.037367
     56 HG23         8.0240    21.2550   -15.3830 hc         1 0PN       0.037367
     57 H1           9.1630    23.8310   -11.2640 hn         1 0PN       0.323500
     58 HA1          8.9290    26.7380   -11.7100 h1         1 0PN       0.098700
     59 HB1          7.2760    25.0580    -9.7560 hc         1 0PN       0.055033
     60 HB2          7.2280    26.8210    -9.8840 hc         1 0PN       0.055033
     61 HB3          6.6800    25.8230   -11.2340 hc         1 0PN       0.055033
     62 H2          10.0150    27.9820   -10.2910 hn         1 0PN       0.345500
     63 HA2         10.8340    27.0120    -7.7100 h1         1 0PN       0.043700
     64 HB21        12.6620    26.1530    -9.4290 hc         1 0PN       0.064700
     65 HB31        13.1650    27.8160    -9.4970 hc         1 0PN       0.064700
     66 HG2         14.5450    27.1110    -7.7750 hc         1 0PN       0.091200
     67 HG3         13.1800    27.5690    -6.7920 hc         1 0PN       0.091200
     68 HD2         13.8940    24.7780    -7.8120 h1         1 0PN       0.066700
     69 HD3         14.0590    25.3240    -6.1710 h1         1 0PN       0.066700
     70 HE          11.5880    24.6690    -7.6620 hn         1 0PN       0.341700
     71 HH11         9.5070    24.9770    -4.9510 hn         1 0PN       0.324700
     72 HH12         9.6420    24.5270    -6.6030 hn         1 0PN       0.324700
     73 HH21        12.8880    25.8980    -4.5770 hn         1 0PN       0.324700
     74 HH22        11.3650    25.7700    -3.8040 hn         1 0PN       0.324700
     75 H3          11.6650    29.4920   -10.1360 hn         1 0PN       0.292500
     76 HA3         11.9020    31.6650   -10.0410 h1         1 0PN       0.051700
     77 HB22         9.5760    31.8380    -9.2960 h1         1 0PN       0.017200
     78 HB32        10.0730    31.7020    -7.6120 h1         1 0PN       0.017200
     79 HG          11.4990    33.5000    -8.1500 ho         1 0PN       0.467000
@<TRIPOS>BOND
     1     1     2 2   
     2     1     3 1   
     3     1    11 1   
     4     3     4 1   
     5     4     5 1   
     6     4    41 1   
     7     4    42 1   
     8     5     6 ar  
     9     5    10 ar  
    10     6     7 ar  
    11     6    43 1   
    12     7     8 ar  
    13     7    44 1   
    14     8     9 ar  
    15     8    45 1   
    16     9    10 ar  
    17     9    46 1   
    18    10    47 1   
    19    11    12 1   
    20    11    48 1   
    21    12    13 1   
    22    12    15 1   
    23    12    49 1   
    24    13    14 2   
    25    13    18 1   
    26    15    16 1   
    27    15    17 1   
    28    15    50 1   
    29    16    51 1   
    30    16    52 1   
    31    16    53 1   
    32    17    54 1   
    33    17    55 1   
    34    17    56 1   
    35    18    19 1   
    36    18    57 1   
    37    19    20 1   
    38    19    22 1   
    39    19    58 1   
    40    20    21 2   
    41    20    23 1   
    42    22    59 1   
    43    22    60 1   
    44    22    61 1   
    45    23    24 1   
    46    23    62 1   
    47    24    25 1   
    48    24    27 1   
    49    24    63 1   
    50    25    26 2   
    51    25    34 1   
    52    27    28 1   
    53    27    64 1   
    54    27    65 1   
    55    28    29 1   
    56    28    66 1   
    57    28    67 1   
    58    29    30 1   
    59    29    68 1   
    60    29    69 1   
    61    30    31 2   
    62    30    70 1   
    63    31    32 1   
    64    31    33 1   
    65    32    71 1   
    66    32    72 1   
    67    33    73 1   
    68    33    74 1   
    69    34    35 1   
    70    34    75 1   
    71    35    36 1   
    72    35    38 1   
    73    35    76 1   
    74    36    37 1   
    75    36    40 1   
    76    38    39 1   
    77    38    77 1   
    78    38    78 1   
    79    39    79 1   
@<TRIPOS>SUBSTRUCTURE
     1 0PN         1 TEMP              0 ****  ****    0 ROOT
