@<TRIPOS>MOLECULE
0PN
   79    79     1     0     0
SMALL
No Charge or Current Charge


@<TRIPOS>ATOM
      1 C1           7.8420    22.7880   -12.2040 c          1 0PN       0.638100
      2 O1           7.2000    23.8020   -12.3960 o          1 0PN      -0.467000
      3 O2           7.6930    22.0370   -11.0650 os         1 0PN      -0.434100
      4 C2           8.4750    20.8520   -10.8210 c3         1 0PN       0.221900
      5 C3           8.1260    20.3260    -9.4340 ca         1 0PN      -0.104300
      6 C4           6.7810    20.1200    -9.0650 ca         1 0PN      -0.081000
      7 C5           6.4620    19.6380    -7.7840 ca         1 0PN      -0.112000
      8 C6           7.4850    19.3520    -6.8640 ca         1 0PN      -0.091000
      9 C7           8.8270    19.5510    -7.2260 ca         1 0PN      -0.112000
     10 C8           9.1470    20.0380    -8.5060 ca         1 0PN      -0.081000
     11 N            8.9140    22.4060   -12.9890 ns         1 0PN      -0.553900
     12 CA           9.3890    23.0740   -14.2390 c3         1 0PN       0.054700
     13 C           10.2100    24.3760   -13.9360 c          1 0PN       0.609100
     14 O           11.1420    24.7480   -14.6370 o          1 0PN      -0.571100
     15 CB           8.2650    23.2760   -15.3100 c3         1 0PN      -0.067700
     16 CG1          8.8090    23.8350   -16.6480 c3         1 0PN      -0.090600
     17 CG2          7.4600    21.9760   -15.5690 c3         1 0PN      -0.090600
     18 N1           9.9010    25.0230   -12.7590 ns         1 0PN      -0.500900
     19 CA1         10.5910    26.2010   -12.1970 c3         1 0PN       0.037700
     20 C9          10.2500    26.3190   -10.6830 c          1 0PN       0.605100
     21 O3           9.3770    25.6450   -10.1450 o          1 0PN      -0.703100
     22 CB1         10.2160    27.4840   -12.9770 c3         1 0PN      -0.112100
     23 N2          10.9990    27.2260    -9.9630 ns         1 0PN      -0.478900
     24 CA2         10.8900    27.4160    -8.4950 c3         1 0PN       0.010700
     25 CC          11.0040    28.9200    -8.0770 c          1 0PN       0.592100
     26 O4          11.2340    29.2670    -6.9250 o          1 0PN      -0.589100
     27 CB2         11.9060    26.4950    -7.7620 c3         1 0PN      -0.085400
     28 CG          11.4170    25.9810    -6.3790 c3         1 0PN      -0.105400
     29 CD          10.6890    24.6170    -6.4100 c3         1 0PN       0.054600
     30 NE           9.5650    24.6230    -7.3630 nu         1 0PN      -0.882000
     31 CZ           8.6060    23.7410    -7.5170 cz         1 0PN       0.932600
     32 NH1          7.9040    23.7900    -8.6030 nv         1 0PN      -0.613300
     33 NH2          8.3660    22.8370    -6.6140 nv         1 0PN      -0.613300
     34 N3          10.8800    29.8440    -9.1040 ns         1 0PN      -0.446900
     35 CA3         11.0060    31.3220    -8.9640 c3         1 0PN      -0.094300
     36 CE          12.4530    31.7390    -8.5350 c          1 0PN       0.725000
     37 O5          12.5900    32.7000    -7.7860 o          1 0PN      -0.710500
     38 CB3          9.8850    31.9200    -8.0700 c3         1 0PN       0.186600
     39 OG          10.0120    33.3410    -8.0100 oh         1 0PN      -0.708000
     40 OXT         13.3990    31.1160    -8.9990 o          1 0PN      -0.710500
     41 H21          8.2540    20.0790   -11.5690 h1         1 0PN       0.037200
     42 H22          9.5490    21.0770   -10.8560 h1         1 0PN       0.037200
     43 H41          5.9820    20.3320    -9.7730 ha         1 0PN       0.112000
     44 H51          5.4220    19.4800    -7.5060 ha         1 0PN       0.117000
     45 H61          7.2380    18.9740    -5.8740 ha         1 0PN       0.117000
     46 H71          9.6210    19.3270    -6.5160 ha         1 0PN       0.117000
     47 H81         10.1910    20.1880    -8.7750 ha         1 0PN       0.112000
     48 H            9.4080    21.5730   -12.6970 hn         1 0PN       0.316500
     49 HA          10.1190    22.3840   -14.6820 h1         1 0PN       0.060700
     50 HB           7.5590    24.0230   -14.9260 hc         1 0PN       0.091700
     51 HG11         9.2330    24.8380   -16.5170 hc         1 0PN       0.037367
     52 HG12         9.5860    23.1800   -17.0590 hc         1 0PN       0.037367
     53 HG13         8.0050    23.9180   -17.3890 hc         1 0PN       0.037367
     54 HG21         6.6900    22.1410   -16.3320 hc         1 0PN       0.037367
     55 HG22         8.1210    21.1730   -15.9190 hc         1 0PN       0.037367
     56 HG23         6.9510    21.6300   -14.6620 hc         1 0PN       0.037367
     57 H1           9.1220    24.6420   -12.2310 hn         1 0PN       0.323500
     58 HA1         11.6760    26.0420   -12.2690 h1         1 0PN       0.098700
     59 HB1          9.1390    27.6770   -12.9080 hc         1 0PN       0.055033
     60 HB2         10.7480    28.3560   -12.5790 hc         1 0PN       0.055033
     61 HB3         10.4800    27.3870   -14.0370 hc         1 0PN       0.055033
     62 H2          11.7540    27.6880   -10.4610 hn         1 0PN       0.345500
     63 HA2          9.8730    27.1240    -8.2070 h1         1 0PN       0.043700
     64 HB21        12.1470    25.6260    -8.3880 hc         1 0PN       0.064700
     65 HB31        12.8500    27.0410    -7.6360 hc         1 0PN       0.064700
     66 HG2         12.2850    25.8790    -5.7170 hc         1 0PN       0.091200
     67 HG3         10.7670    26.7300    -5.9080 hc         1 0PN       0.091200
     68 HD2         11.4100    23.8360    -6.6920 h1         1 0PN       0.066700
     69 HD3         10.3360    24.3900    -5.3930 h1         1 0PN       0.066700
     70 HE           9.6810    25.2350    -8.1700 hn         1 0PN       0.392000
     71 HH11         7.3450    23.0100    -8.9040 hn         1 0PN       0.375000
     72 HH12         8.1830    24.4340    -9.3340 hn         1 0PN       0.375000
     73 HH21         8.9050    22.8030    -5.7670 hn         1 0PN       0.375000
     74 HH22         7.6690    22.1230    -6.7420 hn         1 0PN       0.375000
     75 H3          10.6680    29.4660   -10.0190 hn         1 0PN       0.292500
     76 HA3         10.8700    31.7400    -9.9690 h1         1 0PN       0.051700
     77 HB22         8.9050    31.6440    -8.4820 h1         1 0PN       0.017200
     78 HB32         9.9530    31.5000    -7.0580 h1         1 0PN       0.017200
     79 HG          10.9800    33.4730    -7.8140 ho         1 0PN       0.506000
@<TRIPOS>BOND
     1     1     2 2   
     2     1     3 1   
     3     1    11 1   
     4     3     4 1   
     5     4     5 1   
     6     4    41 1   
     7     4    42 1   
     8     5     6 ar  
     9     5    10 ar  
    10     6     7 ar  
    11     6    43 1   
    12     7     8 ar  
    13     7    44 1   
    14     8     9 ar  
    15     8    45 1   
    16     9    10 ar  
    17     9    46 1   
    18    10    47 1   
    19    11    12 1   
    20    11    48 1   
    21    12    13 1   
    22    12    15 1   
    23    12    49 1   
    24    13    14 2   
    25    13    18 1   
    26    15    16 1   
    27    15    17 1   
    28    15    50 1   
    29    16    51 1   
    30    16    52 1   
    31    16    53 1   
    32    17    54 1   
    33    17    55 1   
    34    17    56 1   
    35    18    19 1   
    36    18    57 1   
    37    19    20 1   
    38    19    22 1   
    39    19    58 1   
    40    20    21 2   
    41    20    23 1   
    42    22    59 1   
    43    22    60 1   
    44    22    61 1   
    45    23    24 1   
    46    23    62 1   
    47    24    25 1   
    48    24    27 1   
    49    24    63 1   
    50    25    26 2   
    51    25    34 1   
    52    27    28 1   
    53    27    64 1   
    54    27    65 1   
    55    28    29 1   
    56    28    66 1   
    57    28    67 1   
    58    29    30 1   
    59    29    68 1   
    60    29    69 1   
    61    30    31 2   
    62    30    70 1   
    63    31    32 1   
    64    31    33 1   
    65    32    71 1   
    66    32    72 1   
    67    33    73 1   
    68    33    74 1   
    69    34    35 1   
    70    34    75 1   
    71    35    36 1   
    72    35    38 1   
    73    35    76 1   
    74    36    37 1   
    75    36    40 1   
    76    38    39 1   
    77    38    77 1   
    78    38    78 1   
    79    39    79 1   
@<TRIPOS>SUBSTRUCTURE
     1 0PN         1 TEMP              0 ****  ****    0 ROOT
