@<TRIPOS>MOLECULE
0PO
  104   108     1     0     0
SMALL
No Charge or Current Charge


@<TRIPOS>ATOM
      1 C           -6.1050    -1.0320    -1.0760 c          1 0PO       0.503600
      2 O1          -6.0180    -2.2020    -1.4410 o          1 0PO      -0.612100
      3 N1          -7.4300     0.9920    -0.4430 nb         1 0PO      -0.658000
      4 C2          -7.4420    -0.3130    -0.8540 ca         1 0PO       0.311500
      5 C3          -8.6540    -1.0020    -1.0750 ca         1 0PO      -0.122000
      6 C4          -9.8750    -0.3420    -0.8720 ca         1 0PO      -0.073000
      7 C5         -11.0580     1.6920    -0.2350 ca         1 0PO      -0.096000
      8 C6         -11.0320     3.0310     0.1870 ca         1 0PO      -0.099000
      9 C7          -9.8020     3.6750     0.3940 ca         1 0PO      -0.105000
     10 C8          -8.5980     2.9790     0.1790 ca         1 0PO      -0.077000
     11 C9          -9.8520     0.9970    -0.4500 ca         1 0PO      -0.072000
     12 C10         -8.6030     1.6370    -0.2440 ca         1 0PO       0.267000
     13 N           -4.9800    -0.2680    -0.8270 ns         1 0PO      -0.463900
     14 CA          -3.5750    -0.7150    -0.9670 c3         1 0PO       0.032700
     15 C1          -2.7190    -0.1450     0.2010 c          1 0PO       0.589100
     16 O           -3.0970     0.7720     0.9230 o          1 0PO      -0.605100
     17 CB          -2.9750    -0.3440    -2.3610 c3         1 0PO      -0.058700
     18 CG1         -3.6380    -1.1250    -3.5200 c3         1 0PO      -0.088600
     19 CG2         -2.9890     1.1800    -2.6410 c3         1 0PO      -0.088600
     20 N2          -1.4910    -0.7510     0.3660 ns         1 0PO      -0.482900
     21 CA1         -0.5200    -0.4370     1.4250 c3         1 0PO       0.071700
     22 CC           0.8630    -0.1200     0.7830 c3         1 0PO       0.156300
     23 OXT          1.4190    -1.2760     0.1380 oh         1 0PO      -0.640000
     24 CB1         -0.5160    -1.5640     2.4960 c3         1 0PO      -0.054100
     25 CG          -1.9140    -1.8920     3.0130 ca         1 0PO      -0.089300
     26 CD1         -2.6020    -3.0280     2.5410 ca         1 0PO      -0.101500
     27 CD2         -2.5380    -1.0460     3.9520 ca         1 0PO      -0.101500
     28 CE1         -3.8990    -3.3130     3.0020 ca         1 0PO      -0.105500
     29 CE2         -3.8340    -1.3330     4.4130 ca         1 0PO      -0.105500
     30 CZ          -4.5160    -2.4660     3.9380 ca         1 0PO      -0.107000
     31 CM           1.9460     0.4280     1.7570 c3         1 0PO       0.143800
     32 N11          3.3400     0.2580     1.2370 n3         1 0PO      -0.712600
     33 C21          3.8330     1.3620     0.3140 c6         1 0PO       0.114500
     34 C31          5.1870     0.9010    -0.3030 c6         1 0PO      -0.061400
     35 C41          6.2390     0.6380     0.7950 c6         1 0PO       0.076300
     36 C51          5.6950    -0.4080     1.7900 c6         1 0PO      -0.076400
     37 C61          4.3140     0.0130     2.3380 c6         1 0PO       0.182800
     38 CD           2.8270     1.8900    -0.7800 c          1 0PO       0.596100
     39 O2           1.9410     2.6860    -0.4940 o          1 0PO      -0.582100
     40 N12         12.5460     1.0200     0.1280 nb         1 0PO      -0.665000
     41 C22         11.2580     1.2430     0.4820 ca         1 0PO       0.351900
     42 C32         10.4400     0.2640     1.0790 ca         1 0PO      -0.131300
     43 C42         10.9810    -1.0130     1.3160 ca         1 0PO      -0.056000
     44 C52         12.3160    -1.2480     0.9490 ca         1 0PO      -0.164000
     45 C62         13.0590    -0.2100     0.3610 ca         1 0PO       0.339900
     46 S            7.8650     0.1340     0.0680 ss         1 0PO      -0.425000
     47 N3           2.9840     1.3870    -2.0650 ns         1 0PO      -0.510900
     48 C14          2.1450     1.6580    -3.2390 c3         1 0PO       0.139400
     49 C11          2.1860     3.1620    -3.6060 c3         1 0PO      -0.104767
     50 C12          2.7340     0.8370    -4.4100 c3         1 0PO      -0.104767
     51 C13          0.6880     1.1970    -2.9840 c3         1 0PO      -0.104767
     52 H3          -8.6420    -2.0380    -1.4020 ha         1 0PO       0.148000
     53 H4         -10.8170    -0.8620    -1.0390 ha         1 0PO       0.123000
     54 H5         -12.0140     1.1970    -0.3940 ha         1 0PO       0.117000
     55 H6         -11.9630     3.5680     0.3530 ha         1 0PO       0.117000
     56 H7          -9.7790     4.7130     0.7210 ha         1 0PO       0.118000
     57 H8          -7.6500     3.4840     0.3410 ha         1 0PO       0.135000
     58 H           -5.1610     0.6730    -0.4880 hn         1 0PO       0.357500
     59 HA          -3.5440    -1.8060    -0.8550 h1         1 0PO       0.079700
     60 HB          -1.9220    -0.6540    -2.3530 hc         1 0PO       0.053700
     61 HG11        -4.6840    -0.8240    -3.6530 hc         1 0PO       0.039533
     62 HG12        -3.1090    -0.9390    -4.4620 hc         1 0PO       0.039533
     63 HG13        -3.6110    -2.2040    -3.3260 hc         1 0PO       0.039533
     64 HG21        -2.4490     1.7300    -1.8610 hc         1 0PO       0.039533
     65 HG22        -2.5040     1.4000    -3.5990 hc         1 0PO       0.039533
     66 HG23        -4.0150     1.5650    -2.6860 hc         1 0PO       0.039533
     67 H1          -1.2530    -1.4920    -0.2820 hn         1 0PO       0.321500
     68 HA1         -0.8500     0.4830     1.9280 h1         1 0PO       0.086700
     69 HC           0.6730     0.6540     0.0310 h1         1 0PO       0.114700
     70 HOR          2.3870    -1.1600     0.2990 ho         1 0PO       0.428000
     71 HB2         -0.0560    -2.4650     2.0730 hc         1 0PO       0.047200
     72 HB3          0.1170    -1.2690     3.3400 hc         1 0PO       0.047200
     73 HD1         -2.1350    -3.6860     1.8130 ha         1 0PO       0.108000
     74 HD2         -2.0200    -0.1630     4.3190 ha         1 0PO       0.108000
     75 HE1         -4.4260    -4.1900     2.6310 ha         1 0PO       0.116500
     76 HE2         -4.3110    -0.6750     5.1360 ha         1 0PO       0.116500
     77 HZ          -5.5200    -2.6870     4.2930 ha         1 0PO       0.113000
     78 HM1          1.7390     1.4800     1.9910 h1         1 0PO       0.035200
     79 HM2          1.8500    -0.1210     2.7020 h1         1 0PO       0.035200
     80 H2           4.0440     2.2510     0.9260 h1         1 0PO       0.015700
     81 H31          5.0460    -0.0130    -0.8970 hc         1 0PO       0.077200
     82 H32          5.5690     1.6730    -0.9850 hc         1 0PO       0.077200
     83 H41          6.4100     1.5810     1.3340 h1         1 0PO       0.056700
     84 H51          5.6070    -1.3840     1.2940 hc         1 0PO       0.061200
     85 H52          6.3940    -0.5410     2.6250 hc         1 0PO       0.061200
     86 H61          4.4260     0.9170     2.9540 h1         1 0PO       0.029700
     87 H62          3.9500    -0.7870     2.9990 h1         1 0PO       0.029700
     88 H42         10.3830    -1.8000     1.7710 ha         1 0PO       0.122000
     89 H53         12.7750    -2.2190     1.1130 ha         1 0PO       0.125000
     90 H63         14.0970    -0.3680     0.0680 h4         1 0PO       0.020100
     91 HN           3.7320     0.7170    -2.1840 hn         1 0PO       0.304500
     92 H2'1         3.2190     3.5030    -3.7390 hc         1 0PO       0.046033
     93 H2'2         1.6450     3.3470    -4.5420 hc         1 0PO       0.046033
     94 H2'3         1.7210     3.7810    -2.8310 hc         1 0PO       0.046033
     95 H3'1         2.7240    -0.2360    -4.1800 hc         1 0PO       0.046033
     96 H3'2         2.1530     0.9910    -5.3280 hc         1 0PO       0.046033
     97 H3'3         3.7710     1.1310    -4.6130 hc         1 0PO       0.046033
     98 H4'1         0.2030     1.7990    -2.2070 hc         1 0PO       0.046033
     99 H4'2         0.0870     1.2910    -3.8960 hc         1 0PO       0.046033
    100 H4'3         0.6600     0.1470    -2.6670 hc         1 0PO       0.046033
    101 CE           9.0040     0.5830     1.4540 c3         1 0PO       0.118900
    102 H21         10.8700     2.2420     0.2810 h4         1 0PO       0.021100
    103 H11          8.7210     0.0220     2.3540 h1         1 0PO       0.064200
    104 H2A          8.9020     1.6540     1.6730 h1         1 0PO       0.064200
@<TRIPOS>BOND
     1     1     2 2   
     2     1     4 1   
     3     1    13 1   
     4     3     4 ar  
     5     3    12 ar  
     6     4     5 ar  
     7     5     6 ar  
     8     5    52 1   
     9     6    11 ar  
    10     6    53 1   
    11     7     8 ar  
    12     7    11 ar  
    13     7    54 1   
    14     8     9 ar  
    15     8    55 1   
    16     9    10 ar  
    17     9    56 1   
    18    10    12 ar  
    19    10    57 1   
    20    11    12 ar  
    21    13    14 1   
    22    13    58 1   
    23    14    15 1   
    24    14    17 1   
    25    14    59 1   
    26    15    16 2   
    27    15    20 1   
    28    17    18 1   
    29    17    19 1   
    30    17    60 1   
    31    18    61 1   
    32    18    62 1   
    33    18    63 1   
    34    19    64 1   
    35    19    65 1   
    36    19    66 1   
    37    20    21 1   
    38    20    67 1   
    39    21    22 1   
    40    21    24 1   
    41    21    68 1   
    42    22    23 1   
    43    22    31 1   
    44    22    69 1   
    45    23    70 1   
    46    24    25 1   
    47    24    71 1   
    48    24    72 1   
    49    25    26 ar  
    50    25    27 ar  
    51    26    28 ar  
    52    26    73 1   
    53    27    29 ar  
    54    27    74 1   
    55    28    30 ar  
    56    28    75 1   
    57    29    30 ar  
    58    29    76 1   
    59    30    77 1   
    60    31    32 1   
    61    31    78 1   
    62    31    79 1   
    63    32    33 1   
    64    32    37 1   
    65    33    34 1   
    66    33    38 1   
    67    33    80 1   
    68    34    35 1   
    69    34    81 1   
    70    34    82 1   
    71    35    36 1   
    72    35    46 1   
    73    35    83 1   
    74    36    37 1   
    75    36    84 1   
    76    36    85 1   
    77    37    86 1   
    78    37    87 1   
    79    38    39 2   
    80    38    47 1   
    81    40    41 ar  
    82    40    45 ar  
    83    41    42 ar  
    84    41   102 1   
    85    42    43 ar  
    86    42   101 1   
    87    43    44 ar  
    88    43    88 1   
    89    44    45 ar  
    90    44    89 1   
    91    45    90 1   
    92    46   101 1   
    93    47    48 1   
    94    47    91 1   
    95    48    49 1   
    96    48    50 1   
    97    48    51 1   
    98    49    92 1   
    99    49    93 1   
   100    49    94 1   
   101    50    95 1   
   102    50    96 1   
   103    50    97 1   
   104    51    98 1   
   105    51    99 1   
   106    51   100 1   
   107   101   103 1   
   108   101   104 1   
@<TRIPOS>SUBSTRUCTURE
     1 0PO         1 TEMP              0 ****  ****    0 ROOT
