@<TRIPOS>MOLECULE
0PO
  104   108     1     0     0
SMALL
bcc


@<TRIPOS>ATOM
      1 C           -5.7390    -1.6170    -0.2230 c          1 0PO       0.570600
      2 O1          -5.7750    -2.7740     0.1710 o          1 0PO      -0.612100
      3 N1          -6.7460     0.5620    -0.3540 nb         1 0PO      -0.658000
      4 C2          -6.8660    -0.6640     0.0780 ca         1 0PO       0.376800
      5 C3          -7.9660    -1.1210     0.8320 ca         1 0PO      -0.205300
      6 C4          -8.9570    -0.2310     1.1380 ca         1 0PO      -0.091000
      7 C5          -9.8290     2.0880     0.9780 ca         1 0PO      -0.114000
      8 C6          -9.6680     3.3680     0.5230 ca         1 0PO      -0.117000
      9 C7          -8.5270     3.7200    -0.2320 ca         1 0PO      -0.123000
     10 C8          -7.5670     2.7890    -0.5210 ca         1 0PO      -0.160300
     11 C9          -8.8540     1.1060     0.6970 ca         1 0PO      -0.137300
     12 C10         -7.7090     1.4600    -0.0620 ca         1 0PO       0.397600
     13 N           -4.7400    -1.0730    -0.9270 ns         1 0PO      -0.530900
     14 CA          -3.4420    -1.6830    -1.0750 c3         1 0PO       0.032700
     15 C1          -2.4170    -0.6760    -0.5590 c          1 0PO       0.656100
     16 O           -2.5670     0.5210    -0.7400 o          1 0PO      -0.605100
     17 CB          -3.1380    -2.1320    -2.5180 c3         1 0PO      -0.058700
     18 CG1         -4.1400    -3.1960    -2.9530 c3         1 0PO      -0.088600
     19 CG2         -3.1090    -0.9820    -3.5180 c3         1 0PO      -0.088600
     20 N2          -1.3600    -1.2120     0.0750 ns         1 0PO      -0.549900
     21 CA1         -0.4190    -0.4200     0.8350 c3         1 0PO       0.071700
     22 CC           1.0150    -0.8600     0.5190 c3         1 0PO       0.133100
     23 OXT          1.2370    -2.2170     0.8400 oh         1 0PO      -0.577800
     24 CB1         -0.7720    -0.4720     2.3340 c3         1 0PO      -0.054100
     25 CG          -2.2120    -0.1070     2.5690 ca         1 0PO      -0.089300
     26 CD1         -3.1870    -1.0920     2.6970 ca         1 0PO      -0.119500
     27 CD2         -2.6120     1.2270     2.5810 ca         1 0PO      -0.119500
     28 CE1         -4.5290    -0.7570     2.8180 ca         1 0PO      -0.123500
     29 CE2         -3.9510     1.5680     2.7030 ca         1 0PO      -0.123500
     30 CZ          -4.9170     0.5750     2.8130 ca         1 0PO      -0.125000
     31 CM           2.0390     0.0640     1.1670 c3         1 0PO       0.143800
     32 N11          3.3910    -0.1720     0.6760 n3         1 0PO      -0.712600
     33 C21          3.9340     0.9480    -0.0740 c6         1 0PO       0.114500
     34 C31          5.3320     0.6360    -0.6140 c6         1 0PO      -0.061400
     35 C41          6.2680     0.1860     0.4980 c6         1 0PO       0.028400
     36 C51          5.6500    -1.0040     1.2110 c6         1 0PO      -0.076400
     37 C61          4.2770    -0.6220     1.7370 c6         1 0PO       0.182800
     38 CD           3.0290     1.2430    -1.2780 c          1 0PO       0.663100
     39 O2           2.8870     0.4190    -2.1710 o          1 0PO      -0.582100
     40 N12         12.4470     0.1860     0.1250 nb         1 0PO      -0.665000
     41 C22         11.2030     0.3480     0.5550 ca         1 0PO       0.417200
     42 C32         10.3140    -0.7000     0.7760 ca         1 0PO      -0.196600
     43 C42         10.7670    -1.9880     0.5170 ca         1 0PO      -0.074000
     44 C52         12.0650    -2.1700     0.0680 ca         1 0PO      -0.247300
     45 C62         12.8650    -1.0520    -0.1140 ca         1 0PO       0.405200
     46 S            7.8840    -0.1860    -0.2530 ss         1 0PO      -0.329200
     47 N3           2.4460     2.4480    -1.2600 ns         1 0PO      -0.577900
     48 C14          1.5410     3.0040    -2.2760 c3         1 0PO       0.139400
     49 C11          0.2990     2.1270    -2.4410 c3         1 0PO      -0.104767
     50 C12          1.1180     4.3770    -1.7570 c3         1 0PO      -0.104767
     51 C13          2.2690     3.1710    -3.6100 c3         1 0PO      -0.104767
     52 H3          -8.0140    -2.1490     1.1600 ha         1 0PO       0.166000
     53 H4          -9.8190    -0.5390     1.7150 ha         1 0PO       0.141000
     54 H5         -10.7020     1.8140     1.5580 ha         1 0PO       0.135000
     55 H6         -10.4140     4.1200     0.7420 ha         1 0PO       0.135000
     56 H7          -8.4160     4.7370    -0.5830 ha         1 0PO       0.136000
     57 H8          -6.6880     3.0480    -1.0960 ha         1 0PO       0.153000
     58 H           -4.8120    -0.0790    -1.0980 hn         1 0PO       0.357500
     59 HA          -3.4230    -2.5730    -0.4440 h1         1 0PO       0.079700
     60 HB          -2.1440    -2.5930    -2.4890 hc         1 0PO       0.053700
     61 HG11        -5.1400    -2.7710    -3.0570 hc         1 0PO       0.039533
     62 HG12        -3.8570    -3.6110    -3.9220 hc         1 0PO       0.039533
     63 HG13        -4.1970    -4.0180    -2.2390 hc         1 0PO       0.039533
     64 HG21        -2.3150    -0.2640    -3.3130 hc         1 0PO       0.039533
     65 HG22        -2.9450    -1.3700    -4.5240 hc         1 0PO       0.039533
     66 HG23        -4.0580    -0.4430    -3.5300 hc         1 0PO       0.039533
     67 H1          -1.3590    -2.2070     0.2440 hn         1 0PO       0.321500
     68 HA1         -0.5290     0.6100     0.4930 h1         1 0PO       0.086700
     69 HC           1.1330    -0.7990    -0.5660 h1         1 0PO       0.114700
     70 HOR          1.2940    -2.3100     1.7970 ho         1 0PO       0.389000
     71 HB2         -0.5790    -1.4740     2.7270 hc         1 0PO       0.047200
     72 HB3         -0.1180     0.2130     2.8780 hc         1 0PO       0.047200
     73 HD1         -2.8960    -2.1360     2.6950 ha         1 0PO       0.126000
     74 HD2         -1.8670     2.0090     2.4840 ha         1 0PO       0.126000
     75 HE1         -5.2720    -1.5390     2.9060 ha         1 0PO       0.134500
     76 HE2         -4.2420     2.6110     2.7080 ha         1 0PO       0.134500
     77 HZ          -5.9630     0.8380     2.8980 ha         1 0PO       0.131000
     78 HM1          1.7290     1.1030     1.0020 h1         1 0PO       0.035200
     79 HM2          2.0110    -0.0640     2.2560 h1         1 0PO       0.035200
     80 H2           4.0070     1.8510     0.5600 h1         1 0PO       0.015700
     81 H31          5.2510    -0.1560    -1.3630 hc         1 0PO       0.077200
     82 H32          5.7230     1.5270    -1.1120 hc         1 0PO       0.077200
     83 H41          6.4120     1.0060     1.2100 h1         1 0PO       0.056700
     84 H51          5.5660    -1.8430     0.5150 hc         1 0PO       0.061200
     85 H52          6.2660    -1.3320     2.0500 hc         1 0PO       0.061200
     86 H61          4.3960     0.1450     2.5210 h1         1 0PO       0.029700
     87 H62          3.8220    -1.4900     2.2160 h1         1 0PO       0.029700
     88 H42         10.1140    -2.8390     0.6690 ha         1 0PO       0.140000
     89 H53         12.4530    -3.1580    -0.1380 ha         1 0PO       0.143000
     90 H63         13.8850    -1.1610    -0.4650 h4         1 0PO       0.020100
     91 HN           2.6420     3.0380    -0.4670 hn         1 0PO       0.304500
     92 H2'1        -0.2310     2.0130    -1.4960 hc         1 0PO       0.046033
     93 H2'2        -0.3870     2.5940    -3.1510 hc         1 0PO       0.046033
     94 H2'3         0.5430     1.1350    -2.8140 hc         1 0PO       0.046033
     95 H3'1         1.9780     5.0370    -1.6250 hc         1 0PO       0.046033
     96 H3'2         0.4410     4.8520    -2.4670 hc         1 0PO       0.046033
     97 H3'3         0.5970     4.2970    -0.8000 hc         1 0PO       0.046033
     98 H4'1         2.5880     2.2140    -4.0210 hc         1 0PO       0.046033
     99 H4'2         1.6070     3.6450    -4.3360 hc         1 0PO       0.046033
    100 H4'3         3.1490     3.8060    -3.4960 hc         1 0PO       0.046033
    101 CE           8.9140    -0.4330     1.2300 c3         1 0PO       0.071000
    102 H21         10.8840     1.3690     0.7420 h4         1 0PO       0.021100
    103 H11          8.5310    -1.2720     1.8110 h1         1 0PO       0.064200
    104 H2A          8.8670     0.4630     1.8510 h1         1 0PO       0.064200
@<TRIPOS>BOND
     1     1     2 2   
     2     1     4 1   
     3     1    13 1   
     4     3     4 ar  
     5     3    12 ar  
     6     4     5 ar  
     7     5     6 ar  
     8     5    52 1   
     9     6    11 ar  
    10     6    53 1   
    11     7     8 ar  
    12     7    11 ar  
    13     7    54 1   
    14     8     9 ar  
    15     8    55 1   
    16     9    10 ar  
    17     9    56 1   
    18    10    12 ar  
    19    10    57 1   
    20    11    12 ar  
    21    13    14 1   
    22    13    58 1   
    23    14    15 1   
    24    14    17 1   
    25    14    59 1   
    26    15    16 2   
    27    15    20 1   
    28    17    18 1   
    29    17    19 1   
    30    17    60 1   
    31    18    61 1   
    32    18    62 1   
    33    18    63 1   
    34    19    64 1   
    35    19    65 1   
    36    19    66 1   
    37    20    21 1   
    38    20    67 1   
    39    21    22 1   
    40    21    24 1   
    41    21    68 1   
    42    22    23 1   
    43    22    31 1   
    44    22    69 1   
    45    23    70 1   
    46    24    25 1   
    47    24    71 1   
    48    24    72 1   
    49    25    26 ar  
    50    25    27 ar  
    51    26    28 ar  
    52    26    73 1   
    53    27    29 ar  
    54    27    74 1   
    55    28    30 ar  
    56    28    75 1   
    57    29    30 ar  
    58    29    76 1   
    59    30    77 1   
    60    31    32 1   
    61    31    78 1   
    62    31    79 1   
    63    32    33 1   
    64    32    37 1   
    65    33    34 1   
    66    33    38 1   
    67    33    80 1   
    68    34    35 1   
    69    34    81 1   
    70    34    82 1   
    71    35    36 1   
    72    35    46 1   
    73    35    83 1   
    74    36    37 1   
    75    36    84 1   
    76    36    85 1   
    77    37    86 1   
    78    37    87 1   
    79    38    39 2   
    80    38    47 1   
    81    40    41 ar  
    82    40    45 ar  
    83    41    42 ar  
    84    41   102 1   
    85    42    43 ar  
    86    42   101 1   
    87    43    44 ar  
    88    43    88 1   
    89    44    45 ar  
    90    44    89 1   
    91    45    90 1   
    92    46   101 1   
    93    47    48 1   
    94    47    91 1   
    95    48    49 1   
    96    48    50 1   
    97    48    51 1   
    98    49    92 1   
    99    49    93 1   
   100    49    94 1   
   101    50    95 1   
   102    50    96 1   
   103    50    97 1   
   104    51    98 1   
   105    51    99 1   
   106    51   100 1   
   107   101   103 1   
   108   101   104 1   
@<TRIPOS>SUBSTRUCTURE
     1 0PO         1 TEMP              0 ****  ****    0 ROOT
