@<TRIPOS>MOLECULE
0PP
   99   101     1     0     0
SMALL
bcc


@<TRIPOS>ATOM
      1 C            4.4860     1.1270     1.2070 c          1 0PP       0.575600
      2 O            3.6510     1.3290     2.0790 o          1 0PP      -0.624100
      3 N1           6.5470     0.1410     0.4830 nb         1 0PP      -0.659000
      4 C2           5.7110     0.3000     1.4740 ca         1 0PP       0.380800
      5 C3           5.8880    -0.2810     2.7460 ca         1 0PP      -0.204300
      6 C4           6.9850    -1.0690     2.9500 ca         1 0PP      -0.090000
      7 C5           9.0460    -2.0950     2.0190 ca         1 0PP      -0.114000
      8 C6           9.8890    -2.2620     0.9550 ca         1 0PP      -0.116000
      9 C7           9.6220    -1.6240    -0.2770 ca         1 0PP      -0.121000
     10 C8           8.5200    -0.8290    -0.4260 ca         1 0PP      -0.161300
     11 C4A          7.8980    -1.2810     1.8950 ca         1 0PP      -0.136300
     12 C8A          7.6320    -0.6400     0.6580 ca         1 0PP       0.398600
     13 N            4.4070     1.6000    -0.0400 ns         1 0PP      -0.538900
     14 CA           3.3280     2.4250    -0.5240 c3         1 0PP      -0.007300
     15 C1           2.2550     1.5270    -1.1510 c          1 0PP       0.654100
     16 O1           2.1830     1.3620    -2.3640 o          1 0PP      -0.629100
     17 CB           3.8590     3.4590    -1.5260 c3         1 0PP       0.158100
     18 OG1          4.5490     2.8320    -2.5840 oh         1 0PP      -0.605800
     19 CG2          4.8030     4.4400    -0.8590 c3         1 0PP      -0.092100
     20 N2           1.4390     0.9400    -0.2680 ns         1 0PP      -0.546900
     21 CA1          0.4550    -0.0630    -0.6120 c3         1 0PP       0.082700
     22 C9          -0.9390     0.4220    -0.1890 c3         1 0PP       0.112100
     23 OXT         -1.0120     0.7030     1.1920 oh         1 0PP      -0.595800
     24 CB1          0.8440    -1.4220    -0.0150 c3         1 0PP      -0.048100
     25 CG           2.2370    -1.8510    -0.3850 ca         1 0PP      -0.085300
     26 CD1          3.2020    -2.0580     0.5960 ca         1 0PP      -0.119500
     27 CD2          2.5880    -2.0680    -1.7160 ca         1 0PP      -0.119500
     28 CE1          4.4820    -2.4810     0.2620 ca         1 0PP      -0.128500
     29 CE2          3.8700    -2.4770    -2.0560 ca         1 0PP      -0.128500
     30 CZ           4.8220    -2.6860    -1.0660 ca         1 0PP      -0.122000
     31 CM          -2.0340    -0.5360    -0.6390 c3         1 0PP       0.067000
     32 N4          -3.3370     0.0180    -0.3620 ns         1 0PP      -0.572900
     33 C10         -4.4300    -0.2490    -1.0980 c          1 0PP       0.671100
     34 O3          -4.3980    -0.9850    -2.0760 o          1 0PP      -0.613100
     35 C12         -5.7080     0.4210    -0.6220 c3         1 0PP      -0.120700
     36 CT1         -6.0460     1.6890    -1.4600 c3         1 0PP      -0.032000
     37 CT2         -6.2630     1.3850    -2.9450 c3         1 0PP      -0.089100
     38 CT3         -7.3220     2.3210    -0.8970 c3         1 0PP      -0.089100
     39 CT4         -4.9100     2.7080    -1.3350 c3         1 0PP      -0.089100
     40 C13         -6.8360    -0.6160    -0.5810 c3         1 0PP      -0.149400
     41 CC          -7.8090    -0.4230     0.5700 c          1 0PP       0.668100
     42 O2          -7.4480    -0.0110     1.6640 o          1 0PP      -0.616100
     43 N3          -9.0700    -0.8010     0.2990 ns         1 0PP      -0.570900
     44 C31        -10.1570    -0.8430     1.2600 c3         1 0PP       0.106700
     45 C41        -11.3900    -0.1400     0.6930 c3         1 0PP      -0.089900
     46 C51        -11.1670     1.3310     0.3770 c3         1 0PP      -0.086600
     47 C21        -10.4750    -2.2840     1.6660 c3         1 0PP      -0.089900
     48 C11         -9.3080    -3.0140     2.3140 c3         1 0PP      -0.086600
     49 H3           5.1660    -0.1100     3.5300 ha         1 0PP       0.166000
     50 H4           7.1580    -1.5380     3.9100 ha         1 0PP       0.142000
     51 H5           9.2470    -2.5840     2.9650 ha         1 0PP       0.137000
     52 H6          10.7670    -2.8860     1.0520 ha         1 0PP       0.136000
     53 H7          10.3000    -1.7700    -1.1080 ha         1 0PP       0.138000
     54 H8           8.3040    -0.3360    -1.3650 ha         1 0PP       0.153000
     55 H            5.1330     1.3220    -0.6880 hn         1 0PP       0.364500
     56 HA           2.8930     2.9590     0.3240 h1         1 0PP       0.089700
     57 HB           2.9890     4.0170    -1.9000 h1         1 0PP       0.043700
     58 HG1          3.9120     2.2460    -3.0150 ho         1 0PP       0.435000
     59 HG21         5.6750     3.9370    -0.4400 hc         1 0PP       0.047367
     60 HG22         5.1500     5.1830    -1.5780 hc         1 0PP       0.047367
     61 HG23         4.2960     4.9710    -0.0530 hc         1 0PP       0.047367
     62 H1           1.5860     1.1330     0.7120 hn         1 0PP       0.341500
     63 HA1          0.4490    -0.1440    -1.7000 h1         1 0PP       0.091700
     64 HC          -1.1070     1.3820    -0.6880 h1         1 0PP       0.091700
     65 HOR         -1.0050    -0.1220     1.6900 ho         1 0PP       0.404000
     66 HB2          0.7610    -1.3910     1.0760 hc         1 0PP       0.052200
     67 HB3          0.1290    -2.1740    -0.3590 hc         1 0PP       0.052200
     68 HD1          2.9480    -1.8900     1.6370 ha         1 0PP       0.132000
     69 HD2          1.8510    -1.9270    -2.4980 ha         1 0PP       0.132000
     70 HE1          5.2140    -2.6450     1.0430 ha         1 0PP       0.131000
     71 HE2          4.1250    -2.6370    -3.0960 ha         1 0PP       0.131000
     72 HZ           5.8230    -3.0040    -1.3310 ha         1 0PP       0.131000
     73 HM2         -1.9400    -0.7070    -1.7120 h1         1 0PP       0.059200
     74 HM3         -1.9220    -1.5110    -0.1500 h1         1 0PP       0.059200
     75 HN'2        -3.4420     0.5570     0.4840 hn         1 0PP       0.327500
     76 H2          -5.5450     0.7680     0.4030 hc         1 0PP       0.078700
     77 HT21        -7.0410     0.6370    -3.1100 hc         1 0PP       0.037922
     78 HT22        -6.5800     2.2950    -3.4590 hc         1 0PP       0.037922
     79 HT23        -5.3550     1.0340    -3.4320 hc         1 0PP       0.037922
     80 HT31        -7.2270     2.5440     0.1670 hc         1 0PP       0.037922
     81 HT32        -7.5390     3.2570    -1.4160 hc         1 0PP       0.037922
     82 HT33        -8.1940     1.6770    -1.0280 hc         1 0PP       0.037922
     83 HT41        -3.9890     2.3630    -1.8070 hc         1 0PP       0.037922
     84 HT42        -5.1930     3.6420    -1.8240 hc         1 0PP       0.037922
     85 HT43        -4.6850     2.9380    -0.2910 hc         1 0PP       0.037922
     86 H1'1        -7.3660    -0.6630    -1.5330 hc         1 0PP       0.069700
     87 H1'2        -6.4170    -1.6170    -0.4330 hc         1 0PP       0.069700
     88 HN          -9.2730    -1.1390    -0.6290 hn         1 0PP       0.307500
     89 H31         -9.8190    -0.2970     2.1440 h1         1 0PP       0.083700
     90 H41        -11.7250    -0.6720    -0.2040 hc         1 0PP       0.040950
     91 H42        -12.1970    -0.2380     1.4230 hc         1 0PP       0.040950
     92 H51        -12.0890     1.8000     0.0330 hc         1 0PP       0.036200
     93 H52        -10.8280     1.8780     1.2580 hc         1 0PP       0.036200
     94 H53        -10.4190     1.4690    -0.4040 hc         1 0PP       0.036200
     95 H21        -11.3190    -2.2590     2.3600 hc         1 0PP       0.040950
     96 H22        -10.8200    -2.8360     0.7850 hc         1 0PP       0.040950
     97 H11         -8.4630    -3.1130     1.6330 hc         1 0PP       0.036200
     98 H12         -8.9600    -2.4860     3.2030 hc         1 0PP       0.036200
     99 H13         -9.6010    -4.0190     2.6190 hc         1 0PP       0.036200
@<TRIPOS>BOND
     1     1     2 2   
     2     1     4 1   
     3     1    13 1   
     4     3     4 ar  
     5     3    12 ar  
     6     4     5 ar  
     7     5     6 ar  
     8     5    49 1   
     9     6    11 ar  
    10     6    50 1   
    11     7     8 ar  
    12     7    11 ar  
    13     7    51 1   
    14     8     9 ar  
    15     8    52 1   
    16     9    10 ar  
    17     9    53 1   
    18    10    12 ar  
    19    10    54 1   
    20    11    12 ar  
    21    13    14 1   
    22    13    55 1   
    23    14    15 1   
    24    14    17 1   
    25    14    56 1   
    26    15    16 2   
    27    15    20 1   
    28    17    18 1   
    29    17    19 1   
    30    17    57 1   
    31    18    58 1   
    32    19    59 1   
    33    19    60 1   
    34    19    61 1   
    35    20    21 1   
    36    20    62 1   
    37    21    22 1   
    38    21    24 1   
    39    21    63 1   
    40    22    23 1   
    41    22    31 1   
    42    22    64 1   
    43    23    65 1   
    44    24    25 1   
    45    24    66 1   
    46    24    67 1   
    47    25    26 ar  
    48    25    27 ar  
    49    26    28 ar  
    50    26    68 1   
    51    27    29 ar  
    52    27    69 1   
    53    28    30 ar  
    54    28    70 1   
    55    29    30 ar  
    56    29    71 1   
    57    30    72 1   
    58    31    32 1   
    59    31    73 1   
    60    31    74 1   
    61    32    33 1   
    62    32    75 1   
    63    33    34 2   
    64    33    35 1   
    65    35    36 1   
    66    35    40 1   
    67    35    76 1   
    68    36    37 1   
    69    36    38 1   
    70    36    39 1   
    71    37    77 1   
    72    37    78 1   
    73    37    79 1   
    74    38    80 1   
    75    38    81 1   
    76    38    82 1   
    77    39    83 1   
    78    39    84 1   
    79    39    85 1   
    80    40    41 1   
    81    40    86 1   
    82    40    87 1   
    83    41    42 2   
    84    41    43 1   
    85    43    44 1   
    86    43    88 1   
    87    44    45 1   
    88    44    47 1   
    89    44    89 1   
    90    45    46 1   
    91    45    90 1   
    92    45    91 1   
    93    46    92 1   
    94    46    93 1   
    95    46    94 1   
    96    47    48 1   
    97    47    95 1   
    98    47    96 1   
    99    48    97 1   
   100    48    98 1   
   101    48    99 1   
@<TRIPOS>SUBSTRUCTURE
     1 0PP         1 TEMP              0 ****  ****    0 ROOT
