@<TRIPOS>MOLECULE
0PP
   99   101     1     0     0
SMALL
No Charge or Current Charge


@<TRIPOS>ATOM
      1 C            4.2650     1.2800     0.5190 c          1 0PP       0.508600
      2 O            3.5140     1.5130     1.4610 o          1 0PP      -0.624100
      3 N1           6.4170     0.4630    -0.4500 nb         1 0PP      -0.659000
      4 C2           5.6750     0.6980     0.6740 ca         1 0PP       0.315500
      5 C3           6.1760     0.4120     1.9610 ca         1 0PP      -0.121000
      6 C4           7.4570    -0.1430     2.0990 ca         1 0PP      -0.072000
      7 C5           9.4910    -0.9640     1.0360 ca         1 0PP      -0.096000
      8 C6          10.2360    -1.2180    -0.1260 ca         1 0PP      -0.098000
      9 C7           9.6980    -0.9070    -1.3850 ca         1 0PP      -0.103000
     10 C8           8.4140    -0.3400    -1.4800 ca         1 0PP      -0.078000
     11 C4A          8.2050    -0.3970     0.9380 ca         1 0PP      -0.071000
     12 C8A          7.6510    -0.0780    -0.3280 ca         1 0PP       0.268000
     13 N            3.8560     1.5090    -0.7800 ns         1 0PP      -0.471900
     14 CA           2.5750     2.1410    -1.2000 c3         1 0PP      -0.007300
     15 C1           1.4150     1.1050    -1.2040 c          1 0PP       0.587100
     16 O1           0.6020     1.0070    -2.1140 o          1 0PP      -0.629100
     17 CB           2.7270     2.8800    -2.5600 c3         1 0PP       0.181300
     18 OG1          3.2140     1.9760    -3.5620 oh         1 0PP      -0.668000
     19 CG2          3.6860     4.0850    -2.4780 c3         1 0PP      -0.092100
     20 N2           1.4180     0.2300    -0.1430 ns         1 0PP      -0.479900
     21 CA1          0.5170    -0.9170     0.0250 c3         1 0PP       0.082700
     22 C9          -0.9270    -0.4650     0.4190 c3         1 0PP       0.135300
     23 OXT         -0.9170     0.2890     1.6510 oh         1 0PP      -0.658000
     24 CB1          1.1580    -1.9570     0.9900 c3         1 0PP      -0.048100
     25 CG           2.6380    -2.2540     0.7230 ca         1 0PP      -0.085300
     26 CD1          3.5420    -2.3290     1.8030 ca         1 0PP      -0.101500
     27 CD2          3.1160    -2.4760    -0.5860 ca         1 0PP      -0.101500
     28 CE1          4.8990    -2.6160     1.5790 ca         1 0PP      -0.110500
     29 CE2          4.4770    -2.7520    -0.8100 ca         1 0PP      -0.110500
     30 CZ           5.3690    -2.8230     0.2720 ca         1 0PP      -0.104000
     31 CM          -1.9380    -1.6410     0.5210 c3         1 0PP       0.067000
     32 N4          -3.3140    -1.1940     0.7770 ns         1 0PP      -0.505900
     33 C10         -4.1240    -0.5840    -0.1560 c          1 0PP       0.604100
     34 O3          -3.7740    -0.4540    -1.3210 o          1 0PP      -0.613100
     35 C12         -5.5010    -0.1060     0.3720 c3         1 0PP      -0.120700
     36 CT1         -5.6360     1.4730     0.4080 c3         1 0PP      -0.032000
     37 CT2         -5.9380     2.0670    -0.9960 c3         1 0PP      -0.089100
     38 CT3         -6.7590     1.9170     1.3900 c3         1 0PP      -0.089100
     39 CT4         -4.3140     2.1080     0.9330 c3         1 0PP      -0.089100
     40 C13         -6.6300    -0.9110    -0.3620 c3         1 0PP      -0.149400
     41 CC          -8.0230    -0.8360     0.2710 c          1 0PP       0.601100
     42 O2          -8.2490    -1.2350     1.4050 o          1 0PP      -0.616100
     43 N3          -9.0070    -0.3270    -0.5500 ns         1 0PP      -0.503900
     44 C31        -10.4240    -0.1960    -0.1920 c3         1 0PP       0.106700
     45 C41        -11.0060     1.1350    -0.7300 c3         1 0PP      -0.089900
     46 C51        -10.2800     2.4030    -0.2310 c3         1 0PP      -0.086600
     47 C21        -11.2460    -1.4120    -0.6950 c3         1 0PP      -0.089900
     48 C11        -10.8000    -2.7780    -0.1310 c3         1 0PP      -0.086600
     49 H3           5.5690     0.6100     2.8400 ha         1 0PP       0.148000
     50 H4           7.8530    -0.3750     3.0850 ha         1 0PP       0.124000
     51 H5           9.9120    -1.2070     2.0090 ha         1 0PP       0.119000
     52 H6          11.2290    -1.6570    -0.0520 ha         1 0PP       0.118000
     53 H7          10.2740    -1.1030    -2.2870 ha         1 0PP       0.120000
     54 H8           8.0030    -0.1020    -2.4570 ha         1 0PP       0.135000
     55 H            4.5360     1.2670    -1.4980 hn         1 0PP       0.364500
     56 HA           2.3010     2.8850    -0.4420 h1         1 0PP       0.089700
     57 HB           1.7420     3.2690    -2.8540 h1         1 0PP       0.043700
     58 HG1          2.4710     1.3660    -3.7720 ho         1 0PP       0.474000
     59 HG21         4.7020     3.7670    -2.2140 hc         1 0PP       0.047367
     60 HG22         3.7300     4.6060    -3.4420 hc         1 0PP       0.047367
     61 HG23         3.3410     4.8000    -1.7220 hc         1 0PP       0.047367
     62 H1           2.1200     0.4070     0.5700 hn         1 0PP       0.341500
     63 HA1          0.4350    -1.4010    -0.9580 h1         1 0PP       0.091700
     64 HC          -1.2840     0.1850    -0.3930 h1         1 0PP       0.091700
     65 HOR         -0.6300    -0.3160     2.3660 ho         1 0PP       0.443000
     66 HB2          1.0420    -1.6000     2.0200 hc         1 0PP       0.052200
     67 HB3          0.5950    -2.8960     0.9290 hc         1 0PP       0.052200
     68 HD1          3.1930    -2.1690     2.8210 ha         1 0PP       0.114000
     69 HD2          2.4390    -2.4370    -1.4350 ha         1 0PP       0.114000
     70 HE1          5.5880    -2.6730     2.4190 ha         1 0PP       0.113000
     71 HE2          4.8390    -2.9140    -1.8220 ha         1 0PP       0.113000
     72 HZ           6.4210    -3.0370     0.0990 ha         1 0PP       0.113000
     73 HM2         -1.9230    -2.2130    -0.4170 h1         1 0PP       0.059200
     74 HM3         -1.6400    -2.3220     1.3290 h1         1 0PP       0.059200
     75 HN'2        -3.6750    -1.2600     1.7220 hn         1 0PP       0.327500
     76 H2          -5.5360    -0.4260     1.4210 hc         1 0PP       0.078700
     77 HT21        -6.9090     1.7300    -1.3750 hc         1 0PP       0.037922
     78 HT22        -5.9680     3.1630    -0.9560 hc         1 0PP       0.037922
     79 HT23        -5.1700     1.7840    -1.7250 hc         1 0PP       0.037922
     80 HT31        -6.6040     1.4890     2.3880 hc         1 0PP       0.037922
     81 HT32        -6.7780     3.0080     1.4950 hc         1 0PP       0.037922
     82 HT33        -7.7500     1.6170     1.0430 hc         1 0PP       0.037922
     83 HT41        -3.4820     1.9530     0.2350 hc         1 0PP       0.037922
     84 HT42        -4.4220     3.1910     1.0650 hc         1 0PP       0.037922
     85 HT43        -4.0300     1.6800     1.9030 hc         1 0PP       0.037922
     86 H1'1        -6.6770    -0.6120    -1.4150 hc         1 0PP       0.069700
     87 H1'2        -6.3450    -1.9700    -0.3410 hc         1 0PP       0.069700
     88 HN          -8.7210    -0.0360    -1.4760 hn         1 0PP       0.307500
     89 H31        -10.5040    -0.1680     0.9040 h1         1 0PP       0.083700
     90 H41        -10.9890     1.1260    -1.8270 hc         1 0PP       0.040950
     91 H42        -12.0600     1.2040    -0.4330 hc         1 0PP       0.040950
     92 H51        -10.8130     3.3010    -0.5650 hc         1 0PP       0.036200
     93 H52        -10.2330     2.4200     0.8640 hc         1 0PP       0.036200
     94 H53         -9.2590     2.4530    -0.6270 hc         1 0PP       0.036200
     95 H21        -12.2990    -1.2600    -0.4290 hc         1 0PP       0.040950
     96 H22        -11.2030    -1.4510    -1.7910 hc         1 0PP       0.040950
     97 H11         -9.7880    -3.0330    -0.4680 hc         1 0PP       0.036200
     98 H12        -10.8110    -2.7670     0.9650 hc         1 0PP       0.036200
     99 H13        -11.4780    -3.5690    -0.4720 hc         1 0PP       0.036200
@<TRIPOS>BOND
     1     1     2 2   
     2     1     4 1   
     3     1    13 1   
     4     3     4 ar  
     5     3    12 ar  
     6     4     5 ar  
     7     5     6 ar  
     8     5    49 1   
     9     6    11 ar  
    10     6    50 1   
    11     7     8 ar  
    12     7    11 ar  
    13     7    51 1   
    14     8     9 ar  
    15     8    52 1   
    16     9    10 ar  
    17     9    53 1   
    18    10    12 ar  
    19    10    54 1   
    20    11    12 ar  
    21    13    14 1   
    22    13    55 1   
    23    14    15 1   
    24    14    17 1   
    25    14    56 1   
    26    15    16 2   
    27    15    20 1   
    28    17    18 1   
    29    17    19 1   
    30    17    57 1   
    31    18    58 1   
    32    19    59 1   
    33    19    60 1   
    34    19    61 1   
    35    20    21 1   
    36    20    62 1   
    37    21    22 1   
    38    21    24 1   
    39    21    63 1   
    40    22    23 1   
    41    22    31 1   
    42    22    64 1   
    43    23    65 1   
    44    24    25 1   
    45    24    66 1   
    46    24    67 1   
    47    25    26 ar  
    48    25    27 ar  
    49    26    28 ar  
    50    26    68 1   
    51    27    29 ar  
    52    27    69 1   
    53    28    30 ar  
    54    28    70 1   
    55    29    30 ar  
    56    29    71 1   
    57    30    72 1   
    58    31    32 1   
    59    31    73 1   
    60    31    74 1   
    61    32    33 1   
    62    32    75 1   
    63    33    34 2   
    64    33    35 1   
    65    35    36 1   
    66    35    40 1   
    67    35    76 1   
    68    36    37 1   
    69    36    38 1   
    70    36    39 1   
    71    37    77 1   
    72    37    78 1   
    73    37    79 1   
    74    38    80 1   
    75    38    81 1   
    76    38    82 1   
    77    39    83 1   
    78    39    84 1   
    79    39    85 1   
    80    40    41 1   
    81    40    86 1   
    82    40    87 1   
    83    41    42 2   
    84    41    43 1   
    85    43    44 1   
    86    43    88 1   
    87    44    45 1   
    88    44    47 1   
    89    44    89 1   
    90    45    46 1   
    91    45    90 1   
    92    45    91 1   
    93    46    92 1   
    94    46    93 1   
    95    46    94 1   
    96    47    48 1   
    97    47    95 1   
    98    47    96 1   
    99    48    97 1   
   100    48    98 1   
   101    48    99 1   
@<TRIPOS>SUBSTRUCTURE
     1 0PP         1 TEMP              0 ****  ****    0 ROOT
