@<TRIPOS>MOLECULE
0PQ
   64    66     1     0     0
SMALL
bcc


@<TRIPOS>ATOM
      1 N           -3.2630     0.1350    -2.9590 n8         1 0PQ      -0.890800
      2 C20         -3.1150     0.3580    -1.5190 c3         1 0PQ      -0.032700
      3 P           -1.9750    -0.8880    -0.7430 p5         1 0PQ       1.040400
      4 O1P         -1.9660    -0.7550     0.7660 o          1 0PQ      -0.818500
      5 O2P         -2.3310    -2.2430    -1.3400 o          1 0PQ      -0.818500
      6 CB          -4.4980     0.3370    -0.8400 c3         1 0PQ       0.000900
      7 CG          -4.6000     1.2740     0.3320 ca         1 0PQ      -0.055300
      8 CD1         -4.7130     2.6470     0.1090 ca         1 0PQ      -0.110000
      9 CD2         -4.5620     0.8210     1.6470 ca         1 0PQ      -0.110000
     10 CE1         -4.7840     3.5420     1.1670 ca         1 0PQ      -0.143000
     11 CE2         -4.6410     1.7110     2.7100 ca         1 0PQ      -0.143000
     12 CZ          -4.7490     3.0760     2.4740 ca         1 0PQ      -0.150000
     13 CM          -0.3360    -0.3230    -1.3690 c3         1 0PQ      -0.274600
     14 CA1          0.8160    -1.2100    -0.8670 c3         1 0PQ      -0.095700
     15 CB1          1.0400    -2.4080    -1.7920 c3         1 0PQ      -0.034100
     16 CG1          2.0060    -3.4070    -1.2230 ca         1 0PQ      -0.058300
     17 CD11         1.5530    -4.4070    -0.3630 ca         1 0PQ      -0.115500
     18 CD21         3.3680    -3.3430    -1.5030 ca         1 0PQ      -0.115500
     19 CE11         2.4340    -5.3220     0.1970 ca         1 0PQ      -0.135500
     20 CE21         4.2540    -4.2560    -0.9460 ca         1 0PQ      -0.135500
     21 CZ1          3.7900    -5.2490    -0.0950 ca         1 0PQ      -0.147000
     22 C21          2.0490    -0.3310    -0.7670 c          1 0PQ       0.671100
     23 O7           2.6160     0.0930    -1.7700 o          1 0PQ      -0.672100
     24 N1           2.3960     0.0030     0.4810 ns         1 0PQ      -0.520900
     25 CA           3.3410     1.0290     0.8340 c3         1 0PQ      -0.027300
     26 C            4.6130     0.4820     1.5250 c          1 0PQ       0.925600
     27 O            4.5870    -0.6880     1.9380 o          1 0PQ      -0.838800
     28 CB2          2.6650     2.0640     1.7570 c3         1 0PQ      -0.043100
     29 CG2          1.3990     2.6300     1.1800 ca         1 0PQ      -0.061300
     30 CD12         0.1650     2.0330     1.4270 ca         1 0PQ      -0.125500
     31 CD22         1.4340     3.7490     0.3480 ca         1 0PQ      -0.125500
     32 CE12        -1.0030     2.5380     0.8710 ca         1 0PQ      -0.135500
     33 CE22         0.2710     4.2600    -0.2120 ca         1 0PQ      -0.135500
     34 CZ2         -0.9530     3.6560     0.0510 ca         1 0PQ      -0.160000
     35 OXT          5.5480     1.3030     1.6270 o          1 0PQ      -0.838800
     36 HN1         -2.3890     0.3480    -3.4250 hn         1 0PQ       0.332300
     37 HN2         -3.4090    -0.8570    -3.1140 hn         1 0PQ       0.332300
     38 HA          -2.6920     1.3590    -1.3860 h1         1 0PQ       0.058700
     39 HB1         -5.2290     0.6330    -1.5970 hc         1 0PQ       0.040200
     40 HB2         -4.7650    -0.6790    -0.5360 hc         1 0PQ       0.040200
     41 HD1         -4.7450     3.0180    -0.9100 ha         1 0PQ       0.140500
     42 HD2         -4.4490    -0.2380     1.8340 ha         1 0PQ       0.140500
     43 HE1         -4.8700     4.6030     0.9700 ha         1 0PQ       0.111500
     44 HE2         -4.6110     1.3390     3.7270 ha         1 0PQ       0.111500
     45 HZ          -4.8060     3.7700     3.3030 ha         1 0PQ       0.107000
     46 HM1         -0.3160    -0.2770    -2.4610 hc         1 0PQ       0.054700
     47 HM2         -0.2100     0.7010    -1.0040 hc         1 0PQ       0.054700
     48 HA1          0.5570    -1.5840     0.1300 hc         1 0PQ       0.066700
     49 HB11         0.0700    -2.8810    -1.9570 hc         1 0PQ       0.062700
     50 HB21         1.3890    -2.0480    -2.7630 hc         1 0PQ       0.062700
     51 HD11         0.4940    -4.4690    -0.1340 ha         1 0PQ       0.141500
     52 HD21         3.7390    -2.5700    -2.1650 ha         1 0PQ       0.141500
     53 HE11         2.0600    -6.0950     0.8570 ha         1 0PQ       0.111000
     54 HE21         5.3090    -4.1920    -1.1810 ha         1 0PQ       0.111000
     55 HZ1          4.4790    -5.9650     0.3370 ha         1 0PQ       0.104000
     56 H            1.9240    -0.4650     1.2370 hn         1 0PQ       0.313500
     57 HA2          3.6330     1.5330    -0.0890 h1         1 0PQ       0.067700
     58 HB22         2.4500     1.5910     2.7210 hc         1 0PQ       0.047700
     59 HB3          3.3840     2.8620     1.9480 hc         1 0PQ       0.047700
     60 HD12         0.1080     1.1540     2.0570 ha         1 0PQ       0.133500
     61 HD22         2.3850     4.2280     0.1410 ha         1 0PQ       0.133500
     62 HE12        -1.9450     2.0400     1.0600 ha         1 0PQ       0.126500
     63 HE22         0.3210     5.1330    -0.8510 ha         1 0PQ       0.126500
     64 HZ2         -1.8640     4.0510    -0.3820 ha         1 0PQ       0.109000
@<TRIPOS>BOND
     1     1     2 1   
     2     1    36 1   
     3     1    37 1   
     4     2     3 1   
     5     2     6 1   
     6     2    38 1   
     7     3     4 1   
     8     3     5 1   
     9     3    13 1   
    10     6     7 1   
    11     6    39 1   
    12     6    40 1   
    13     7     8 ar  
    14     7     9 ar  
    15     8    10 ar  
    16     8    41 1   
    17     9    11 ar  
    18     9    42 1   
    19    10    12 ar  
    20    10    43 1   
    21    11    12 ar  
    22    11    44 1   
    23    12    45 1   
    24    13    14 1   
    25    13    46 1   
    26    13    47 1   
    27    14    15 1   
    28    14    22 1   
    29    14    48 1   
    30    15    16 1   
    31    15    49 1   
    32    15    50 1   
    33    16    17 ar  
    34    16    18 ar  
    35    17    19 ar  
    36    17    51 1   
    37    18    20 ar  
    38    18    52 1   
    39    19    21 ar  
    40    19    53 1   
    41    20    21 ar  
    42    20    54 1   
    43    21    55 1   
    44    22    23 2   
    45    22    24 1   
    46    24    25 1   
    47    24    56 1   
    48    25    26 1   
    49    25    28 1   
    50    25    57 1   
    51    26    27 1   
    52    26    35 1   
    53    28    29 1   
    54    28    58 1   
    55    28    59 1   
    56    29    30 ar  
    57    29    31 ar  
    58    30    32 ar  
    59    30    60 1   
    60    31    33 ar  
    61    31    61 1   
    62    32    34 ar  
    63    32    62 1   
    64    33    34 ar  
    65    33    63 1   
    66    34    64 1   
@<TRIPOS>SUBSTRUCTURE
     1 0PQ         1 TEMP              0 ****  ****    0 ROOT
