@<TRIPOS>MOLECULE
0PQ
   64    66     1     0     0
SMALL
No Charge or Current Charge


@<TRIPOS>ATOM
      1 N           -3.6840     0.4450    -3.2120 n8         1 0PQ      -1.001200
      2 C20         -3.3990     0.3360    -1.7140 c3         1 0PQ      -0.190500
      3 P           -2.2300    -1.0150    -1.0040 p5         1 0PQ       1.356000
      4 O1P         -2.3490    -1.1480     0.4810 o          1 0PQ      -0.818500
      5 O2P         -2.4640    -2.3090    -1.7200 o          1 0PQ      -0.818500
      6 CB          -4.7370     0.3910    -0.9170 c3         1 0PQ       0.000900
      7 CG          -4.6810     1.3100     0.3020 ca         1 0PQ      -0.055300
      8 CD1         -4.5980     2.7060     0.1280 ca         1 0PQ      -0.092000
      9 CD2         -4.7410     0.7820     1.6080 ca         1 0PQ      -0.092000
     10 CE1         -4.5670     3.5630     1.2420 ca         1 0PQ      -0.125000
     11 CE2         -4.7090     1.6390     2.7220 ca         1 0PQ      -0.125000
     12 CZ          -4.6210     3.0290     2.5400 ca         1 0PQ      -0.132000
     13 CM          -0.5570    -0.3680    -1.4270 c3         1 0PQ      -0.432400
     14 CA1          0.6830    -1.1660    -0.9030 c3         1 0PQ      -0.095700
     15 CB1          1.0280    -2.3920    -1.7860 c3         1 0PQ      -0.034100
     16 CG1          2.1260    -3.2540    -1.1750 ca         1 0PQ      -0.058300
     17 CD11         1.8190    -4.1710    -0.1500 ca         1 0PQ      -0.097500
     18 CD21         3.4580    -3.1330    -1.6180 ca         1 0PQ      -0.097500
     19 CE11         2.8320    -4.9590     0.4230 ca         1 0PQ      -0.117500
     20 CE21         4.4710    -3.9220    -1.0440 ca         1 0PQ      -0.117500
     21 CZ1          4.1580    -4.8350    -0.0240 ca         1 0PQ      -0.129000
     22 C21          1.9230    -0.2470    -0.7420 c          1 0PQ       0.604100
     23 O7           2.4240     0.3650    -1.6790 o          1 0PQ      -0.672100
     24 N1           2.4150    -0.1600     0.5440 ns         1 0PQ      -0.453900
     25 CA           3.4220     0.8250     1.0080 c3         1 0PQ      -0.027300
     26 C            4.5740     0.1230     1.7920 c          1 0PQ       0.715000
     27 O            4.2850    -0.5990     2.7370 o          1 0PQ      -0.733500
     28 CB2          2.7590     1.9500     1.8450 c3         1 0PQ      -0.043100
     29 CG2          1.4910     2.5120     1.2060 ca         1 0PQ      -0.061300
     30 CD12         0.2240     2.1310     1.6920 ca         1 0PQ      -0.107500
     31 CD22         1.5740     3.3970     0.1140 ca         1 0PQ      -0.107500
     32 CE12        -0.9460     2.6290     1.0920 ca         1 0PQ      -0.117500
     33 CE22         0.4040     3.8960    -0.4850 ca         1 0PQ      -0.117500
     34 CZ2         -0.8560     3.5120     0.0040 ca         1 0PQ      -0.142000
     35 OXT          5.7210     0.2800     1.3960 o          1 0PQ      -0.733500
     36 HN1         -2.8020     0.5430    -3.7340 hn         1 0PQ       0.387500
     37 HN2         -4.0630    -0.4470    -3.5600 hn         1 0PQ       0.387500
     38 HA          -2.8410     1.2460    -1.4570 h1         1 0PQ       0.058700
     39 HB1         -5.5420     0.7520    -1.5700 hc         1 0PQ       0.040200
     40 HB2         -5.0350    -0.6250    -0.6290 hc         1 0PQ       0.040200
     41 HD1         -4.5580     3.1260    -0.8750 ha         1 0PQ       0.122500
     42 HD2         -4.8100    -0.2920     1.7600 ha         1 0PQ       0.122500
     43 HE1         -4.5000     4.6390     1.0980 ha         1 0PQ       0.093500
     44 HE2         -4.7510     1.2250     3.7270 ha         1 0PQ       0.093500
     45 HZ          -4.5960     3.6910     3.4030 ha         1 0PQ       0.089000
     46 HM1         -0.5080    -0.2460    -2.5140 hc         1 0PQ       0.054700
     47 HM2         -0.5450     0.6360    -0.9910 hc         1 0PQ       0.054700
     48 HA1          0.4310    -1.5460     0.0950 hc         1 0PQ       0.066700
     49 HB11         0.1300    -3.0050    -1.9310 hc         1 0PQ       0.062700
     50 HB21         1.3210    -2.0500    -2.7860 hc         1 0PQ       0.062700
     51 HD11         0.7950    -4.2710     0.2030 ha         1 0PQ       0.123500
     52 HD21         3.7110    -2.4250    -2.4040 ha         1 0PQ       0.123500
     53 HE11         2.5880    -5.6660     1.2130 ha         1 0PQ       0.093000
     54 HE21         5.4970    -3.8230    -1.3890 ha         1 0PQ       0.093000
     55 HZ1          4.9410    -5.4450     0.4200 ha         1 0PQ       0.086000
     56 H            1.9650    -0.7390     1.2420 hn         1 0PQ       0.313500
     57 HA2          3.8800     1.2920     0.1270 h1         1 0PQ       0.067700
     58 HB22         2.5250     1.5590     2.8430 hc         1 0PQ       0.047700
     59 HB3          3.4900     2.7530     2.0020 hc         1 0PQ       0.047700
     60 HD12         0.1430     1.4420     2.5290 ha         1 0PQ       0.115500
     61 HD22         2.5460     3.6920    -0.2750 ha         1 0PQ       0.115500
     62 HE12        -1.9180     2.3240     1.4690 ha         1 0PQ       0.108500
     63 HE22         0.4740     4.5770    -1.3300 ha         1 0PQ       0.108500
     64 HZ2         -1.7610     3.8950    -0.4620 ha         1 0PQ       0.091000
@<TRIPOS>BOND
     1     1     2 1   
     2     1    36 1   
     3     1    37 1   
     4     2     3 1   
     5     2     6 1   
     6     2    38 1   
     7     3     4 1   
     8     3     5 1   
     9     3    13 1   
    10     6     7 1   
    11     6    39 1   
    12     6    40 1   
    13     7     8 ar  
    14     7     9 ar  
    15     8    10 ar  
    16     8    41 1   
    17     9    11 ar  
    18     9    42 1   
    19    10    12 ar  
    20    10    43 1   
    21    11    12 ar  
    22    11    44 1   
    23    12    45 1   
    24    13    14 1   
    25    13    46 1   
    26    13    47 1   
    27    14    15 1   
    28    14    22 1   
    29    14    48 1   
    30    15    16 1   
    31    15    49 1   
    32    15    50 1   
    33    16    17 ar  
    34    16    18 ar  
    35    17    19 ar  
    36    17    51 1   
    37    18    20 ar  
    38    18    52 1   
    39    19    21 ar  
    40    19    53 1   
    41    20    21 ar  
    42    20    54 1   
    43    21    55 1   
    44    22    23 2   
    45    22    24 1   
    46    24    25 1   
    47    24    56 1   
    48    25    26 1   
    49    25    28 1   
    50    25    57 1   
    51    26    27 1   
    52    26    35 1   
    53    28    29 1   
    54    28    58 1   
    55    28    59 1   
    56    29    30 ar  
    57    29    31 ar  
    58    30    32 ar  
    59    30    60 1   
    60    31    33 ar  
    61    31    61 1   
    62    32    34 ar  
    63    32    62 1   
    64    33    34 ar  
    65    33    63 1   
    66    34    64 1   
@<TRIPOS>SUBSTRUCTURE
     1 0PQ         1 TEMP              0 ****  ****    0 ROOT
