@<TRIPOS>MOLECULE
0PR
   46    47     1     0     0
SMALL
abcg2


@<TRIPOS>ATOM
      1 N1          -3.9660    56.5050    27.0070 nb         1 0PR      -0.699000
      2 C2          -4.9780    57.3340    26.7920 ca         1 0PR       0.201300
      3 C2A         -5.0820    58.5570    27.6560 c3         1 0PR      -0.122400
      4 C3          -5.9160    57.0810    25.7850 ca         1 0PR       0.081100
      5 O3          -6.9530    57.9130    25.5430 oh         1 0PR      -0.522100
      6 C4          -5.8050    55.9460    24.9830 ca         1 0PR      -0.024300
      7 C4A         -6.8340    55.6900    23.9100 c3         1 0PR       0.195100
      8 C5          -4.7260    55.0910    25.2240 ca         1 0PR      -0.038300
      9 C6          -3.8480    55.4250    26.2460 ca         1 0PR       0.271900
     10 C5A         -4.4710    53.8620    24.3900 c3         1 0PR       0.277900
     11 O4P         -4.0970    54.2450    23.1010 os         1 0PR      -0.579400
     12 P           -4.2730    53.0950    21.8330 p5         1 0PR       1.266900
     13 O1P         -3.2440    52.0130    22.1450 o          1 0PR      -0.921833
     14 O2P         -3.9600    53.9640    20.6240 o          1 0PR      -0.921833
     15 O3P         -5.7230    52.6160    21.9310 o          1 0PR      -0.921833
     16 N           -8.1340    55.3670    24.4690 n7         1 0PR      -0.873400
     17 CA          -9.0980    54.9660    23.4630 c3         1 0PR       0.051500
     18 C          -10.5240    55.4810    23.7810 c          1 0PR       0.710000
     19 O          -10.6720    56.1760    24.8050 o          1 0PR      -0.756500
     20 CB          -9.0930    53.4390    23.2800 c3         1 0PR      -0.032100
     21 CG          -9.5860    52.6970    24.4890 ca         1 0PR      -0.017300
     22 CD1        -10.9140    52.2850    24.5930 ca         1 0PR      -0.056500
     23 CD2         -8.7480    52.4210    25.5660 ca         1 0PR      -0.056500
     24 CE1        -11.3930    51.6320    25.7180 ca         1 0PR      -0.190500
     25 CE2         -9.2070    51.7680    26.7020 ca         1 0PR      -0.190500
     26 CZ         -10.5390    51.3710    26.7860 ca         1 0PR       0.069100
     27 OH         -11.0500    50.7340    27.8640 oh         1 0PR      -0.574100
     28 OXT        -11.4050    55.1620    22.9580 o          1 0PR      -0.756500
     29 H2A1        -4.2590    58.5780    28.3660 hc         1 0PR       0.019367
     30 H2A2        -5.0370    59.4800    27.0710 hc         1 0PR       0.019367
     31 H2A3        -6.0140    58.5800    28.2280 hc         1 0PR       0.019367
     32 HO3         -6.9470    58.6760    26.1320 ho         1 0PR       0.433000
     33 H4A         -6.8660    56.5620    23.2360 h1         1 0PR       0.068700
     34 H6          -3.0000    54.7800    26.4560 h4         1 0PR       0.002100
     35 H5A1        -3.6890    53.2660    24.8850 h1         1 0PR       0.008700
     36 H5A2        -5.3740    53.2370    24.3860 h1         1 0PR       0.008700
     37 H           -8.5210    56.1590    24.9660 hn         1 0PR       0.428000
     38 HA          -8.8380    55.4010    22.4820 h1         1 0PR       0.028700
     39 HB2         -9.7100    53.1900    22.4150 hc         1 0PR       0.077700
     40 HB3         -8.0760    53.1210    23.0350 hc         1 0PR       0.077700
     41 HD1        -11.5960    52.4850    23.7760 ha         1 0PR       0.133500
     42 HD2         -7.7080    52.7230    25.5190 ha         1 0PR       0.133500
     43 HE1        -12.4300    51.3220    25.7710 ha         1 0PR       0.083000
     44 HE2         -8.5260    51.5680    27.5220 ha         1 0PR       0.083000
     45 HH         -10.3650    50.6040    28.5290 ho         1 0PR       0.434000
     46 HA1         -6.5060    54.8550    23.2950 h1         1 0PR       0.068700
@<TRIPOS>BOND
     1     1     2 ar  
     2     1     9 ar  
     3     2     3 1   
     4     2     4 ar  
     5     3    29 1   
     6     3    30 1   
     7     3    31 1   
     8     4     5 1   
     9     4     6 ar  
    10     5    32 1   
    11     6     7 1   
    12     6     8 ar  
    13     7    16 1   
    14     7    33 1   
    15     7    46 1   
    16     8     9 ar  
    17     8    10 1   
    18     9    34 1   
    19    10    11 1   
    20    10    35 1   
    21    10    36 1   
    22    11    12 1   
    23    12    13 1   
    24    12    14 1   
    25    12    15 1   
    26    16    17 1   
    27    16    37 1   
    28    17    18 1   
    29    17    20 1   
    30    17    38 1   
    31    18    19 1   
    32    18    28 1   
    33    20    21 1   
    34    20    39 1   
    35    20    40 1   
    36    21    22 ar  
    37    21    23 ar  
    38    22    24 ar  
    39    22    41 1   
    40    23    25 ar  
    41    23    42 1   
    42    24    26 ar  
    43    24    43 1   
    44    25    26 ar  
    45    25    44 1   
    46    26    27 1   
    47    27    45 1   
@<TRIPOS>SUBSTRUCTURE
     1 0PR         1 TEMP              0 ****  ****    0 ROOT
