@<TRIPOS>MOLECULE
0PR
   46    47     1     0     0
SMALL
No Charge or Current Charge


@<TRIPOS>ATOM
      1 N1          -3.8370    56.6340    26.8470 nb         1 0PR      -0.699000
      2 C2          -4.8120    57.5410    26.6070 ca         1 0PR       0.201300
      3 C2A         -4.7310    58.8290    27.4220 c3         1 0PR      -0.122400
      4 C3          -5.8500    57.3270    25.6610 ca         1 0PR       0.081100
      5 O3          -6.8190    58.2810    25.4530 oh         1 0PR      -0.522100
      6 C4          -5.8760    56.1120    24.9340 ca         1 0PR      -0.024300
      7 C4A         -6.9840    55.8480    23.9100 c3         1 0PR       0.195100
      8 C5          -4.8510    55.1660    25.1900 ca         1 0PR      -0.038300
      9 C6          -3.8670    55.4770    26.1470 ca         1 0PR       0.271900
     10 C5A         -4.7600    53.8240    24.4720 c3         1 0PR       0.277900
     11 O4P         -4.1180    54.0200    23.2100 os         1 0PR      -0.579400
     12 P           -3.7320    52.7280    22.3360 p5         1 0PR       1.266900
     13 O1P         -2.7700    51.8820    23.0920 o          1 0PR      -0.921833
     14 O2P         -3.0960    53.1840    21.0710 o          1 0PR      -0.921833
     15 O3P         -4.9600    51.9510    22.0170 o          1 0PR      -0.921833
     16 N           -8.2420    55.4600    24.5870 n7         1 0PR      -0.873400
     17 CA          -9.4160    55.1790    23.6870 c3         1 0PR       0.051500
     18 C          -10.8200    55.6560    24.2520 c          1 0PR       0.710000
     19 O          -10.8510    56.2800    25.3070 o          1 0PR      -0.756500
     20 CB          -9.4340    53.6790    23.2770 c3         1 0PR      -0.032100
     21 CG          -9.7950    52.7240    24.4150 ca         1 0PR      -0.017300
     22 CD1        -11.0990    52.1960    24.5140 ca         1 0PR      -0.056500
     23 CD2         -8.8280    52.3440    25.3670 ca         1 0PR      -0.056500
     24 CE1        -11.4290    51.3050    25.5520 ca         1 0PR      -0.190500
     25 CE2         -9.1590    51.4530    26.4050 ca         1 0PR      -0.190500
     26 CZ         -10.4590    50.9360    26.4950 ca         1 0PR       0.069100
     27 OH         -10.7810    50.0740    27.4970 oh         1 0PR      -0.574100
     28 OXT        -11.8250    55.4430    23.5840 o          1 0PR      -0.756500
     29 H2A1        -3.8730    58.8340    28.1050 hc         1 0PR       0.019367
     30 H2A2        -4.6320    59.7020    26.7670 hc         1 0PR       0.019367
     31 H2A3        -5.6330    58.9640    28.0320 hc         1 0PR       0.019367
     32 HO3         -6.6380    59.0460    26.0390 ho         1 0PR       0.433000
     33 H4A         -7.1350    56.7620    23.3170 h1         1 0PR       0.068700
     34 H6          -3.0650    54.7720    26.3650 h4         1 0PR       0.002100
     35 H5A1        -4.1890    53.1220    25.0940 h1         1 0PR       0.008700
     36 H5A2        -5.7640    53.4020    24.3390 h1         1 0PR       0.008700
     37 H           -8.5150    56.2530    25.1840 hn         1 0PR       0.428000
     38 HA          -9.2860    55.7610    22.7640 h1         1 0PR       0.028700
     39 HB2        -10.1430    53.5550    22.4490 hc         1 0PR       0.077700
     40 HB3         -8.4570    53.4080    22.8620 hc         1 0PR       0.077700
     41 HD1        -11.8580    52.4770    23.7870 ha         1 0PR       0.133500
     42 HD2         -7.8190    52.7450    25.3030 ha         1 0PR       0.133500
     43 HE1        -12.4370    50.9050    25.6200 ha         1 0PR       0.083000
     44 HE2         -8.4010    51.1720    27.1320 ha         1 0PR       0.083000
     45 HH          -9.9840    49.9350    28.0520 ho         1 0PR       0.434000
     46 HA1         -6.6690    55.0750    23.1970 h1         1 0PR       0.068700
@<TRIPOS>BOND
     1     1     2 ar  
     2     1     9 ar  
     3     2     3 1   
     4     2     4 ar  
     5     3    29 1   
     6     3    30 1   
     7     3    31 1   
     8     4     5 1   
     9     4     6 ar  
    10     5    32 1   
    11     6     7 1   
    12     6     8 ar  
    13     7    16 1   
    14     7    33 1   
    15     7    46 1   
    16     8     9 ar  
    17     8    10 1   
    18     9    34 1   
    19    10    11 1   
    20    10    35 1   
    21    10    36 1   
    22    11    12 1   
    23    12    13 1   
    24    12    14 1   
    25    12    15 1   
    26    16    17 1   
    27    16    37 1   
    28    17    18 1   
    29    17    20 1   
    30    17    38 1   
    31    18    19 1   
    32    18    28 1   
    33    20    21 1   
    34    20    39 1   
    35    20    40 1   
    36    21    22 ar  
    37    21    23 ar  
    38    22    24 ar  
    39    22    41 1   
    40    23    25 ar  
    41    23    42 1   
    42    24    26 ar  
    43    24    43 1   
    44    25    26 ar  
    45    25    44 1   
    46    26    27 1   
    47    27    45 1   
@<TRIPOS>SUBSTRUCTURE
     1 0PR         1 TEMP              0 ****  ****    0 ROOT
