@<TRIPOS>MOLECULE
0PX
   95    97     1     0     0
SMALL
No Charge or Current Charge


@<TRIPOS>ATOM
      1 O           -4.8420     0.0920    -2.1850 o          1 0PX      -0.602100
      2 C           -4.3500     0.6030    -1.1830 c          1 0PX       0.510600
      3 N1          -4.5210     1.8990     0.9490 nb         1 0PX      -0.669000
      4 C2          -5.1680     1.3670    -0.1330 ca         1 0PX       0.321500
      5 C3          -6.5620     1.5090    -0.2980 ca         1 0PX      -0.116000
      6 C4          -7.3080     2.2080     0.6620 ca         1 0PX      -0.070000
      7 C4A         -6.6360     2.7510     1.7700 ca         1 0PX      -0.069000
      8 C5          -7.3510     3.4590     2.7540 ca         1 0PX      -0.093000
      9 C6          -6.6760     4.0010     3.8600 ca         1 0PX      -0.101000
     10 C7          -5.2870     3.8340     3.9820 ca         1 0PX      -0.103000
     11 C8          -4.5750     3.1260     2.9970 ca         1 0PX      -0.080000
     12 C8A         -5.2330     2.5760     1.8810 ca         1 0PX       0.269000
     13 N           -2.9930     0.5170    -0.9270 ns         1 0PX      -0.466900
     14 CA          -1.9890    -0.1640    -1.7740 c3         1 0PX       0.050700
     15 C1          -0.9410    -0.8880    -0.8790 c          1 0PX       0.585100
     16 O1          -0.8260    -0.6720     0.3210 o          1 0PX      -0.598100
     17 CB          -1.3070     0.8370    -2.7480 c3         1 0PX      -0.179400
     18 CG          -2.2860     1.4330    -3.7580 c          1 0PX       0.606100
     19 OD1         -2.6330     0.8510    -4.7710 o          1 0PX      -0.600100
     20 ND2         -2.7340     2.6790    -3.4950 nt         1 0PX      -0.605000
     21 N2          -0.1380    -1.7980    -1.5390 ns         1 0PX      -0.503900
     22 CA1          0.9380    -2.5890    -0.9130 c3         1 0PX       0.079700
     23 CB1          0.8110    -4.0710    -1.3630 c3         1 0PX      -0.082400
     24 CG1          1.8190    -5.0910    -0.7410 c6         1 0PX      -0.056700
     25 CD1          1.5750    -6.5160    -1.3130 c6         1 0PX      -0.073400
     26 CD2          1.7640    -5.1210     0.8160 c6         1 0PX      -0.073400
     27 CE1          2.5700    -7.5480    -0.7270 c6         1 0PX      -0.072400
     28 CE2          2.7550    -6.1570     1.4030 c6         1 0PX      -0.072400
     29 CZ           2.5060    -7.5680     0.8190 c6         1 0PX      -0.074400
     30 CH           2.3490    -1.9580    -1.1620 c3         1 0PX       0.156300
     31 OH           2.6210    -1.9370    -2.5710 oh         1 0PX      -0.656000
     32 CB11         2.4770    -0.5220    -0.5770 c3         1 0PX      -0.102400
     33 C10          3.9290     0.0230    -0.3730 c3         1 0PX      -0.128700
     34 C12          4.7640     0.2700    -1.6770 c3         1 0PX      -0.052700
     35 CG11         4.1320     1.2830    -2.6650 c3         1 0PX      -0.088100
     36 CG2          6.2270     0.6600    -1.3590 c3         1 0PX      -0.088100
     37 C9           3.8980     1.2590     0.5610 c          1 0PX       0.604100
     38 O2           3.2790     2.2820     0.3000 o          1 0PX      -0.614100
     39 N3           4.5930     1.1060     1.7420 ns         1 0PX      -0.502900
     40 C11          4.6890     2.1110     2.8090 c3         1 0PX       0.108000
     41 C21          5.9620     3.0110     2.7410 c3         1 0PX      -0.067000
     42 C31          5.8940     3.9710     1.5240 c3         1 0PX      -0.083100
     43 C41          6.0310     3.8590     4.0380 c3         1 0PX      -0.083100
     44 C51          7.2450     2.1410     2.6410 c3         1 0PX      -0.083100
     45 H3          -7.0560     1.0780    -1.1650 ha         1 0PX       0.150000
     46 H4          -8.3840     2.3240     0.5460 ha         1 0PX       0.123000
     47 H5          -8.4270     3.5910     2.6640 ha         1 0PX       0.118000
     48 H6          -7.2280     4.5480     4.6210 ha         1 0PX       0.117000
     49 H7          -4.7620     4.2530     4.8380 ha         1 0PX       0.117000
     50 H8          -3.5000     3.0010     3.0980 ha         1 0PX       0.128000
     51 H           -2.6900     0.9260    -0.0460 hn         1 0PX       0.348500
     52 HA          -2.4890    -0.9480    -2.3590 h1         1 0PX       0.095700
     53 HB2         -0.8610     1.6370    -2.1460 hc         1 0PX       0.075700
     54 HB3         -0.5240     0.3120    -3.3070 hc         1 0PX       0.075700
     55 HD21        -2.4350     3.1590    -2.6590 hn         1 0PX       0.316500
     56 HD22        -3.3740     3.1180    -4.1390 hn         1 0PX       0.316500
     57 H1          -0.3280    -1.9450    -2.5230 hn         1 0PX       0.315500
     58 HA1          0.7690    -2.5750     0.1720 h1         1 0PX       0.086700
     59 HB21        -0.2110    -4.4020    -1.1360 hc         1 0PX       0.053200
     60 HB31         0.8960    -4.1080    -2.4560 hc         1 0PX       0.053200
     61 HG           2.8250    -4.7770    -1.0510 hc         1 0PX       0.051700
     62 HD12         0.5460    -6.8360    -1.0950 hc         1 0PX       0.039950
     63 HD13         1.6690    -6.5020    -2.4080 hc         1 0PX       0.039950
     64 HD23         2.0070    -4.1330     1.2280 hc         1 0PX       0.039950
     65 HD24         0.7430    -5.3570     1.1490 hc         1 0PX       0.039950
     66 HE12         2.3460    -8.5480    -1.1220 hc         1 0PX       0.037200
     67 HE13         3.5910    -7.3050    -1.0530 hc         1 0PX       0.037200
     68 HE23         3.7860    -5.8450     1.1880 hc         1 0PX       0.037200
     69 HE22         2.6590    -6.1850     2.4970 hc         1 0PX       0.037200
     70 HZ2          1.5230    -7.9370     1.1450 hc         1 0PX       0.038200
     71 HZ3          3.2510    -8.2730     1.2140 hc         1 0PX       0.038200
     72 HH           3.0890    -2.5850    -0.6470 h1         1 0PX       0.076700
     73 HO           2.0130    -1.2800    -2.9680 ho         1 0PX       0.439000
     74 HB11         1.8850     0.1850    -1.1710 hc         1 0PX       0.063200
     75 HB12         2.0040    -0.5350     0.4130 hc         1 0PX       0.063200
     76 H2           4.4710    -0.7620     0.1690 hc         1 0PX       0.045700
     77 HB           4.8290    -0.6880    -2.2070 hc         1 0PX       0.062700
     78 HG11         4.7330     1.3450    -3.5810 hc         1 0PX       0.035200
     79 HG12         3.1210     0.9820    -2.9580 hc         1 0PX       0.035200
     80 HG13         4.0840     2.2880    -2.2310 hc         1 0PX       0.035200
     81 HG21         6.6870    -0.0690    -0.6810 hc         1 0PX       0.035200
     82 HG22         6.8270     0.6870    -2.2770 hc         1 0PX       0.035200
     83 HG23         6.2830     1.6480    -0.8910 hc         1 0PX       0.035200
     84 HN2          5.0690     0.2220     1.8750 hn         1 0PX       0.309500
     85 H11          3.7900     2.7410     2.7970 h1         1 0PX       0.053700
     86 H12          4.6880     1.5700     3.7650 h1         1 0PX       0.053700
     87 H31          4.9870     4.5870     1.5620 hc         1 0PX       0.034922
     88 H32          6.7590     4.6450     1.5080 hc         1 0PX       0.034922
     89 H33          5.8870     3.4180     0.5790 hc         1 0PX       0.034922
     90 H41          6.0970     3.2170     4.9250 hc         1 0PX       0.034922
     91 H42          6.9090     4.5170     4.0320 hc         1 0PX       0.034922
     92 H43          5.1380     4.4880     4.1420 hc         1 0PX       0.034922
     93 H51          7.2690     1.5690     1.7040 hc         1 0PX       0.034922
     94 H52          8.1450     2.7670     2.6690 hc         1 0PX       0.034922
     95 H53          7.3020     1.4300     3.4740 hc         1 0PX       0.034922
@<TRIPOS>BOND
     1     1     2 2   
     2     2     4 1   
     3     2    13 1   
     4     3     4 ar  
     5     3    12 ar  
     6     4     5 ar  
     7     5     6 ar  
     8     5    45 1   
     9     6     7 ar  
    10     6    46 1   
    11     7     8 ar  
    12     7    12 ar  
    13     8     9 ar  
    14     8    47 1   
    15     9    10 ar  
    16     9    48 1   
    17    10    11 ar  
    18    10    49 1   
    19    11    12 ar  
    20    11    50 1   
    21    13    14 1   
    22    13    51 1   
    23    14    15 1   
    24    14    17 1   
    25    14    52 1   
    26    15    16 2   
    27    15    21 1   
    28    17    18 1   
    29    17    53 1   
    30    17    54 1   
    31    18    19 2   
    32    18    20 1   
    33    20    55 1   
    34    20    56 1   
    35    21    22 1   
    36    21    57 1   
    37    22    23 1   
    38    22    30 1   
    39    22    58 1   
    40    23    24 1   
    41    23    59 1   
    42    23    60 1   
    43    24    25 1   
    44    24    26 1   
    45    24    61 1   
    46    25    27 1   
    47    25    62 1   
    48    25    63 1   
    49    26    28 1   
    50    26    64 1   
    51    26    65 1   
    52    27    29 1   
    53    27    66 1   
    54    27    67 1   
    55    28    29 1   
    56    28    68 1   
    57    28    69 1   
    58    29    70 1   
    59    29    71 1   
    60    30    31 1   
    61    30    32 1   
    62    30    72 1   
    63    31    73 1   
    64    32    33 1   
    65    32    74 1   
    66    32    75 1   
    67    33    34 1   
    68    33    37 1   
    69    33    76 1   
    70    34    35 1   
    71    34    36 1   
    72    34    77 1   
    73    35    78 1   
    74    35    79 1   
    75    35    80 1   
    76    36    81 1   
    77    36    82 1   
    78    36    83 1   
    79    37    38 2   
    80    37    39 1   
    81    39    40 1   
    82    39    84 1   
    83    40    41 1   
    84    40    85 1   
    85    40    86 1   
    86    41    42 1   
    87    41    43 1   
    88    41    44 1   
    89    42    87 1   
    90    42    88 1   
    91    42    89 1   
    92    43    90 1   
    93    43    91 1   
    94    43    92 1   
    95    44    93 1   
    96    44    94 1   
    97    44    95 1   
@<TRIPOS>SUBSTRUCTURE
     1 0PX         1 TEMP              0 ****  ****    0 ROOT
