@<TRIPOS>MOLECULE
0PX
   95    97     1     0     0
SMALL
bcc


@<TRIPOS>ATOM
      1 O           -3.7380    -1.1830    -1.0150 o          1 0PX      -0.602100
      2 C           -3.8240    -0.0330    -0.6130 c          1 0PX       0.577600
      3 N1          -4.9530     1.6540     0.6680 nb         1 0PX      -0.669000
      4 C2          -4.9610     0.4110     0.2630 ca         1 0PX       0.386800
      5 C3          -5.9580    -0.5200     0.6190 ca         1 0PX      -0.199300
      6 C4          -6.9710    -0.1040     1.4350 ca         1 0PX      -0.088000
      7 C4A         -6.9940     1.2310     1.8930 ca         1 0PX      -0.134300
      8 C5          -8.0040     1.7370     2.7410 ca         1 0PX      -0.111000
      9 C6          -7.9700     3.0420     3.1490 ca         1 0PX      -0.119000
     10 C7          -6.9270     3.8960     2.7280 ca         1 0PX      -0.121000
     11 C8          -5.9350     3.4330     1.9080 ca         1 0PX      -0.163300
     12 C8A         -5.9460     2.0880     1.4720 ca         1 0PX       0.399600
     13 N           -2.9320     0.9220    -0.9070 ns         1 0PX      -0.533900
     14 CA          -1.7160     0.6110    -1.6070 c3         1 0PX       0.050700
     15 C1          -0.8470    -0.3340    -0.7710 c          1 0PX       0.652100
     16 O1          -0.8440    -0.2680     0.4470 o          1 0PX      -0.598100
     17 CB          -0.9330     1.8930    -1.8690 c3         1 0PX      -0.179400
     18 CG          -1.6610     2.8170    -2.8310 c          1 0PX       0.673100
     19 OD1         -2.2510     2.3840    -3.8090 o          1 0PX      -0.600100
     20 ND2         -1.5790     4.1180    -2.5320 nt         1 0PX      -0.672000
     21 N2          -0.0780    -1.1630    -1.4910 ns         1 0PX      -0.570900
     22 CA1          0.8410    -2.1300    -0.9140 c3         1 0PX       0.079700
     23 CB1          0.4650    -3.5320    -1.3930 c3         1 0PX      -0.082400
     24 CG1          1.3050    -4.6730    -0.8200 c6         1 0PX      -0.056700
     25 CD1          0.8180    -6.0110    -1.3820 c6         1 0PX      -0.073400
     26 CD2          1.2840    -4.7100     0.7090 c6         1 0PX      -0.073400
     27 CE1          1.6090    -7.1920    -0.8310 c6         1 0PX      -0.072400
     28 CE2          2.0710    -5.8920     1.2660 c6         1 0PX      -0.072400
     29 CZ           1.5770    -7.2150     0.6940 c6         1 0PX      -0.074400
     30 CH           2.3000    -1.7500    -1.2010 c3         1 0PX       0.133100
     31 OH           2.6180    -1.9130    -2.5690 oh         1 0PX      -0.593800
     32 CB11         2.6240    -0.3530    -0.6680 c3         1 0PX      -0.102400
     33 C10          4.0950    -0.1330    -0.2930 c3         1 0PX      -0.128700
     34 C12          5.0990    -0.2480    -1.4600 c3         1 0PX      -0.052700
     35 CG11         4.8760     0.7560    -2.5870 c3         1 0PX      -0.088100
     36 CG2          6.5410    -0.1700    -0.9650 c3         1 0PX      -0.088100
     37 C9           4.2140     1.2040     0.4240 c          1 0PX       0.671100
     38 O2           3.7010     2.2230    -0.0200 o          1 0PX      -0.614100
     39 N3           4.9000     1.1760     1.5810 ns         1 0PX      -0.569900
     40 C11          5.0840     2.3120     2.4550 c3         1 0PX       0.108000
     41 C21          6.4450     3.0190     2.3410 c3         1 0PX      -0.067000
     42 C31          6.6280     3.6410     0.9580 c3         1 0PX      -0.083100
     43 C41          6.4620     4.1240     3.3980 c3         1 0PX      -0.083100
     44 C51          7.5800     2.0340     2.6180 c3         1 0PX      -0.083100
     45 H3          -5.9120    -1.5360     0.2540 ha         1 0PX       0.168000
     46 H4          -7.7550    -0.7870     1.7380 ha         1 0PX       0.141000
     47 H5          -8.8000     1.0780     3.0660 ha         1 0PX       0.136000
     48 H6          -8.7440     3.4280     3.7990 ha         1 0PX       0.135000
     49 H7          -6.9150     4.9250     3.0610 ha         1 0PX       0.135000
     50 H8          -5.1310     4.0790     1.5780 ha         1 0PX       0.146000
     51 H           -3.0370     1.8120    -0.4410 hn         1 0PX       0.348500
     52 HA          -1.9550     0.1450    -2.5670 h1         1 0PX       0.095700
     53 HB2         -0.6990     2.3920    -0.9260 hc         1 0PX       0.075700
     54 HB3          0.0240     1.6370    -2.3320 hc         1 0PX       0.075700
     55 HD21        -1.0690     4.4480    -1.7310 hn         1 0PX       0.316500
     56 HD22        -1.9610     4.8110    -3.1550 hn         1 0PX       0.316500
     57 H1          -0.2320    -1.2050    -2.4880 hn         1 0PX       0.315500
     58 HA1          0.7020    -2.0710     0.1670 h1         1 0PX       0.086700
     59 HB21        -0.5850    -3.7000    -1.1320 hc         1 0PX       0.053200
     60 HB31         0.5190    -3.5680    -2.4860 hc         1 0PX       0.053200
     61 HG           2.3470    -4.5430    -1.1420 hc         1 0PX       0.051700
     62 HD12        -0.2420    -6.1350    -1.1290 hc         1 0PX       0.039950
     63 HD13         0.8760    -5.9950    -2.4740 hc         1 0PX       0.039950
     64 HD23         1.6840    -3.7810     1.1260 hc         1 0PX       0.039950
     65 HD24         0.2410    -4.7740     1.0460 hc         1 0PX       0.039950
     66 HE12         1.2160    -8.1280    -1.2360 hc         1 0PX       0.037200
     67 HE13         2.6500    -7.1200    -1.1680 hc         1 0PX       0.037200
     68 HE23         3.1310    -5.7660     1.0180 hc         1 0PX       0.037200
     69 HE22         2.0080    -5.9000     2.3570 hc         1 0PX       0.037200
     70 HZ2          0.5510    -7.3980     1.0320 hc         1 0PX       0.038200
     71 HZ3          2.1810    -8.0430     1.0750 hc         1 0PX       0.038200
     72 HH           2.9240    -2.4760    -0.6670 h1         1 0PX       0.076700
     73 HO           2.2770    -1.1580    -3.0580 ho         1 0PX       0.400000
     74 HB11         2.2920     0.4100    -1.3780 hc         1 0PX       0.063200
     75 HB12         2.0280    -0.1890     0.2340 hc         1 0PX       0.063200
     76 H2           4.3590    -0.9270     0.4160 hc         1 0PX       0.045700
     77 HB           4.9570    -1.2490    -1.8750 hc         1 0PX       0.062700
     78 HG11         5.5300     0.5190    -3.4280 hc         1 0PX       0.035200
     79 HG12         3.8520     0.7440    -2.9590 hc         1 0PX       0.035200
     80 HG13         5.1010     1.7750    -2.2700 hc         1 0PX       0.035200
     81 HG21         6.7250    -0.8630    -0.1420 hc         1 0PX       0.035200
     82 HG22         7.2350    -0.4220    -1.7690 hc         1 0PX       0.035200
     83 HG23         6.8000     0.8330    -0.6190 hc         1 0PX       0.035200
     84 HN2          5.2630     0.2900     1.8920 hn         1 0PX       0.309500
     85 H11          4.2840     3.0280     2.2600 h1         1 0PX       0.053700
     86 H12          4.9540     1.9620     3.4820 h1         1 0PX       0.053700
     87 H31          5.8400     4.3640     0.7390 hc         1 0PX       0.034922
     88 H32          7.5850     4.1640     0.9030 hc         1 0PX       0.034922
     89 H33          6.6200     2.8900     0.1680 hc         1 0PX       0.034922
     90 H41          6.3720     3.7120     4.4070 hc         1 0PX       0.034922
     91 H42          7.3930     4.6920     3.3540 hc         1 0PX       0.034922
     92 H43          5.6380     4.8250     3.2510 hc         1 0PX       0.034922
     93 H51          7.6320     1.2480     1.8620 hc         1 0PX       0.034922
     94 H52          8.5440     2.5480     2.6160 hc         1 0PX       0.034922
     95 H53          7.4660     1.5560     3.5940 hc         1 0PX       0.034922
@<TRIPOS>BOND
     1     1     2 2   
     2     2     4 1   
     3     2    13 1   
     4     3     4 ar  
     5     3    12 ar  
     6     4     5 ar  
     7     5     6 ar  
     8     5    45 1   
     9     6     7 ar  
    10     6    46 1   
    11     7     8 ar  
    12     7    12 ar  
    13     8     9 ar  
    14     8    47 1   
    15     9    10 ar  
    16     9    48 1   
    17    10    11 ar  
    18    10    49 1   
    19    11    12 ar  
    20    11    50 1   
    21    13    14 1   
    22    13    51 1   
    23    14    15 1   
    24    14    17 1   
    25    14    52 1   
    26    15    16 2   
    27    15    21 1   
    28    17    18 1   
    29    17    53 1   
    30    17    54 1   
    31    18    19 2   
    32    18    20 1   
    33    20    55 1   
    34    20    56 1   
    35    21    22 1   
    36    21    57 1   
    37    22    23 1   
    38    22    30 1   
    39    22    58 1   
    40    23    24 1   
    41    23    59 1   
    42    23    60 1   
    43    24    25 1   
    44    24    26 1   
    45    24    61 1   
    46    25    27 1   
    47    25    62 1   
    48    25    63 1   
    49    26    28 1   
    50    26    64 1   
    51    26    65 1   
    52    27    29 1   
    53    27    66 1   
    54    27    67 1   
    55    28    29 1   
    56    28    68 1   
    57    28    69 1   
    58    29    70 1   
    59    29    71 1   
    60    30    31 1   
    61    30    32 1   
    62    30    72 1   
    63    31    73 1   
    64    32    33 1   
    65    32    74 1   
    66    32    75 1   
    67    33    34 1   
    68    33    37 1   
    69    33    76 1   
    70    34    35 1   
    71    34    36 1   
    72    34    77 1   
    73    35    78 1   
    74    35    79 1   
    75    35    80 1   
    76    36    81 1   
    77    36    82 1   
    78    36    83 1   
    79    37    38 2   
    80    37    39 1   
    81    39    40 1   
    82    39    84 1   
    83    40    41 1   
    84    40    85 1   
    85    40    86 1   
    86    41    42 1   
    87    41    43 1   
    88    41    44 1   
    89    42    87 1   
    90    42    88 1   
    91    42    89 1   
    92    43    90 1   
    93    43    91 1   
    94    43    92 1   
    95    44    93 1   
    96    44    94 1   
    97    44    95 1   
@<TRIPOS>SUBSTRUCTURE
     1 0PX         1 TEMP              0 ****  ****    0 ROOT
