@<TRIPOS>MOLECULE
0PY
   11    11     1     0     0
SMALL
abcg2


@<TRIPOS>ATOM
      1 C5          -1.1450     0.6750     0.0140 ca         1 0PY       0.334900
      2 N1          -0.0170     1.3770     0.0120 nb         1 0PY      -0.667000
      3 C4          -1.1810    -0.7120     0.0020 ca         1 0PY      -0.164000
      4 C3           0.0210    -1.4040    -0.0140 ca         1 0PY      -0.073000
      5 C2           1.2040    -0.6790    -0.0170 ca         1 0PY      -0.164000
      6 C1           1.1290     0.7060    -0.0030 ca         1 0PY       0.334900
      7 H5          -2.0680     1.2440     0.0260 h4         1 0PY       0.018100
      8 H4          -2.1290    -1.2330     0.0050 ha         1 0PY       0.122500
      9 H3           0.0360    -2.4860    -0.0230 ha         1 0PY       0.118000
     10 H2           2.1660    -1.1730    -0.0290 ha         1 0PY       0.122500
     11 H1           2.0370     1.3000    -0.0050 h4         1 0PY       0.018100
@<TRIPOS>BOND
     1     1     2 ar  
     2     1     3 ar  
     3     1     7 1   
     4     2     6 ar  
     5     3     4 ar  
     6     3     8 1   
     7     4     5 ar  
     8     4     9 1   
     9     5     6 ar  
    10     5    10 1   
    11     6    11 1   
@<TRIPOS>SUBSTRUCTURE
     1 0PY         1 TEMP              0 ****  ****    0 ROOT
