@<TRIPOS>MOLECULE
0PZ
   19    19     1     0     0
SMALL
No Charge or Current Charge


@<TRIPOS>ATOM
      1 C1           3.5950    -0.3840     0.0240 c3         1 0PZ      -0.088100
      2 C2           2.3240     0.4450     0.2940 c3         1 0PZ      -0.075400
      3 C3           1.0410    -0.2170    -0.2550 c3         1 0PZ      -0.073400
      4 C4          -0.2320     0.6140     0.0150 c3         1 0PZ      -0.068400
      5 C5          -1.4950    -0.0450    -0.5290 cx         1 0PZ       0.083300
      6 O           -2.2910    -0.8080     0.4060 op         1 0PZ      -0.441000
      7 C6          -2.8480     0.4340    -0.0870 cx         1 0PZ       0.075600
      8 H1           3.5210    -1.3720     0.4960 hc         1 0PZ       0.032367
      9 H2           3.7460    -0.5250    -1.0530 hc         1 0PZ       0.032367
     10 H3           4.4770     0.1240     0.4310 hc         1 0PZ       0.032367
     11 H4           2.2210     0.5970     1.3760 hc         1 0PZ       0.036200
     12 H5           2.4440     1.4370    -0.1590 hc         1 0PZ       0.036200
     13 H6           1.1500    -0.3710    -1.3360 hc         1 0PZ       0.045200
     14 H7           0.9250    -1.2090     0.1990 hc         1 0PZ       0.045200
     15 H8          -0.3320     0.7800     1.0950 hc         1 0PZ       0.048700
     16 H9          -0.1180     1.6030    -0.4450 hc         1 0PZ       0.048700
     17 H10         -1.4080    -0.4680    -1.5310 h1         1 0PZ       0.081700
     18 H11         -2.9160     1.2380     0.6450 h1         1 0PZ       0.074200
     19 H12         -3.6940     0.3280    -0.7660 h1         1 0PZ       0.074200
@<TRIPOS>BOND
     1     1     2 1   
     2     1     8 1   
     3     1     9 1   
     4     1    10 1   
     5     2     3 1   
     6     2    11 1   
     7     2    12 1   
     8     3     4 1   
     9     3    13 1   
    10     3    14 1   
    11     4     5 1   
    12     4    15 1   
    13     4    16 1   
    14     5     6 1   
    15     5     7 1   
    16     5    17 1   
    17     6     7 1   
    18     7    18 1   
    19     7    19 1   
@<TRIPOS>SUBSTRUCTURE
     1 0PZ         1 TEMP              0 ****  ****    0 ROOT
