@<TRIPOS>MOLECULE
0PZ
   19    19     1     0     0
SMALL
abcg2


@<TRIPOS>ATOM
      1 C1           3.5120    -0.4380     0.1000 c3         1 0PZ      -0.088100
      2 C2           2.2980     0.4650     0.2590 c3         1 0PZ      -0.075400
      3 C3           1.0140    -0.1760    -0.2530 c3         1 0PZ      -0.073400
      4 C4          -0.2080     0.7210    -0.0840 c3         1 0PZ      -0.068400
      5 C5          -1.4640     0.0930    -0.6150 cx         1 0PZ       0.083300
      6 O           -2.0430    -0.9440     0.1660 op         1 0PZ      -0.441000
      7 C6          -2.7600     0.2750     0.0300 cx         1 0PZ       0.075600
      8 H1           3.3790    -1.3780     0.6400 hc         1 0PZ       0.032367
      9 H2           3.6890    -0.6840    -0.9490 hc         1 0PZ       0.032367
     10 H3           4.4160     0.0370     0.4820 hc         1 0PZ       0.032367
     11 H4           2.1750     0.7310     1.3130 hc         1 0PZ       0.036200
     12 H5           2.4710     1.4070    -0.2720 hc         1 0PZ       0.036200
     13 H6           1.1350    -0.4340    -1.3100 hc         1 0PZ       0.045200
     14 H7           0.8460    -1.1200     0.2750 hc         1 0PZ       0.045200
     15 H8          -0.3420     0.9770     0.9720 hc         1 0PZ       0.048700
     16 H9          -0.0470     1.6650    -0.6140 hc         1 0PZ       0.048700
     17 H10         -1.4610    -0.1110    -1.6860 h1         1 0PZ       0.081700
     18 H11         -2.8290     0.8870     0.9260 h1         1 0PZ       0.074200
     19 H12         -3.6710     0.2280    -0.5590 h1         1 0PZ       0.074200
@<TRIPOS>BOND
     1     1     2 1   
     2     1     8 1   
     3     1     9 1   
     4     1    10 1   
     5     2     3 1   
     6     2    11 1   
     7     2    12 1   
     8     3     4 1   
     9     3    13 1   
    10     3    14 1   
    11     4     5 1   
    12     4    15 1   
    13     4    16 1   
    14     5     6 1   
    15     5     7 1   
    16     5    17 1   
    17     6     7 1   
    18     7    18 1   
    19     7    19 1   
@<TRIPOS>SUBSTRUCTURE
     1 0PZ         1 TEMP              0 ****  ****    0 ROOT
