@<TRIPOS>MOLECULE
0Q1
   42    45     1     0     0
SMALL
bcc


@<TRIPOS>ATOM
      1 CAU          4.6580     1.4140     0.4850 c3         1 0Q1      -0.138400
      2 CAT          4.0000     0.0890     0.4210 cc         1 0Q1       0.309000
      3 OAV          4.7480    -0.9870     0.6770 os         1 0Q1      -0.120100
      4 NAW          3.9860    -2.1170     0.5880 nc         1 0Q1      -0.368300
      5 CAB          2.7830    -1.7260     0.2870 cd         1 0Q1       0.357600
      6 CAA          1.6820    -2.7080     0.1010 c3         1 0Q1      -0.134400
      7 CAC          2.7250    -0.3050     0.1590 cd         1 0Q1      -0.306600
      8 CAD          1.5630     0.5160    -0.1910 ca         1 0Q1      -0.009000
      9 CAR          0.3470     0.3320     0.4670 ca         1 0Q1      -0.075000
     10 CAQ         -0.7420     1.1070     0.1140 ca         1 0Q1      -0.078300
     11 CAE          1.6510     1.4880    -1.1940 ca         1 0Q1      -0.115000
     12 CAF          0.5570     2.2700    -1.5350 ca         1 0Q1      -0.120000
     13 CAG         -0.6480     2.0740    -0.8760 ca         1 0Q1      -0.076300
     14 CAH         -1.9620     2.7750    -1.0720 c5         1 0Q1      -0.028100
     15 CAI         -2.7710     2.3500     0.1650 c5         1 0Q1      -0.104400
     16 CAJ         -2.1430     1.0330     0.6830 c5         1 0Q1       0.251400
     17 OAS         -2.0490     0.9950     2.0870 oh         1 0Q1      -0.582800
     18 CAK         -2.8140    -0.2320     0.1550 ca         1 0Q1      -0.112300
     19 CAL         -2.6650    -1.4330     0.8470 ca         1 0Q1      -0.116000
     20 CAM         -3.2240    -2.6080     0.3640 ca         1 0Q1      -0.131500
     21 CAN         -3.9450    -2.6050    -0.8220 ca         1 0Q1      -0.122000
     22 CAO         -4.0990    -1.4160    -1.5200 ca         1 0Q1      -0.131500
     23 CAP         -3.5380    -0.2410    -1.0350 ca         1 0Q1      -0.116000
     24 H1           5.2390     1.5180     1.4010 hc         1 0Q1       0.063367
     25 H2           5.3350     1.5610    -0.3580 hc         1 0Q1       0.063367
     26 H3           3.9120     2.2050     0.4600 hc         1 0Q1       0.063367
     27 H4           0.9610    -2.6500     0.9160 hc         1 0Q1       0.057700
     28 H5           1.1410    -2.5080    -0.8240 hc         1 0Q1       0.057700
     29 H6           2.0710    -3.7240     0.0650 hc         1 0Q1       0.057700
     30 H7           0.2620    -0.4060     1.2550 ha         1 0Q1       0.144000
     31 H8           2.5860     1.6210    -1.7240 ha         1 0Q1       0.131000
     32 H9           0.6480     3.0190    -2.3120 ha         1 0Q1       0.133000
     33 H10         -1.8520     3.8580    -1.1420 hc         1 0Q1       0.054700
     34 H11         -2.4360     2.4510    -2.0030 hc         1 0Q1       0.054700
     35 H12         -2.6390     3.0970     0.9490 hc         1 0Q1       0.056700
     36 H13         -3.8410     2.2680    -0.0290 hc         1 0Q1       0.056700
     37 H14         -2.9350     0.8850     2.4510 ho         1 0Q1       0.409000
     38 H15         -2.1070    -1.4600     1.7740 ha         1 0Q1       0.135000
     39 H16         -3.0950    -3.5290     0.9190 ha         1 0Q1       0.131000
     40 H17         -4.3830    -3.5210    -1.1980 ha         1 0Q1       0.132000
     41 H18         -4.6620    -1.3970    -2.4450 ha         1 0Q1       0.131000
     42 H19         -3.6760     0.6700    -1.6020 ha         1 0Q1       0.135000
@<TRIPOS>BOND
     1     1     2 1   
     2     1    24 1   
     3     1    25 1   
     4     1    26 1   
     5     2     3 1   
     6     2     7 2   
     7     3     4 1   
     8     4     5 2   
     9     5     6 1   
    10     5     7 1   
    11     6    27 1   
    12     6    28 1   
    13     6    29 1   
    14     7     8 1   
    15     8     9 ar  
    16     8    11 ar  
    17     9    10 ar  
    18     9    30 1   
    19    10    13 ar  
    20    10    16 1   
    21    11    12 ar  
    22    11    31 1   
    23    12    13 ar  
    24    12    32 1   
    25    13    14 1   
    26    14    15 1   
    27    14    33 1   
    28    14    34 1   
    29    15    16 1   
    30    15    35 1   
    31    15    36 1   
    32    16    17 1   
    33    16    18 1   
    34    17    37 1   
    35    18    19 ar  
    36    18    23 ar  
    37    19    20 ar  
    38    19    38 1   
    39    20    21 ar  
    40    20    39 1   
    41    21    22 ar  
    42    21    40 1   
    43    22    23 ar  
    44    22    41 1   
    45    23    42 1   
@<TRIPOS>SUBSTRUCTURE
     1 0Q1         1 TEMP              0 ****  ****    0 ROOT
