@<TRIPOS>MOLECULE
0Q1
   42    45     1     0     0
SMALL
No Charge or Current Charge


@<TRIPOS>ATOM
      1 CAU          4.8220     1.3810    -0.0480 c3         1 0Q1      -0.138400
      2 CAT          4.1250     0.0820     0.2480 cc         1 0Q1       0.199300
      3 OAV          4.9020    -0.9890     0.6110 os         1 0Q1      -0.075700
      4 NAW          4.0500    -2.1100     0.8730 nc         1 0Q1      -0.368300
      5 CAB          2.8290    -1.6480     0.6770 cd         1 0Q1       0.292300
      6 CAA          1.6730    -2.6090     0.7810 c3         1 0Q1      -0.134400
      7 CAC          2.8010    -0.2700     0.3250 cd         1 0Q1      -0.176000
      8 CAD          1.6220     0.5510    -0.0480 ca         1 0Q1      -0.009000
      9 CAR          0.3590     0.3030     0.5390 ca         1 0Q1      -0.057000
     10 CAQ         -0.7540     1.0800     0.1740 ca         1 0Q1      -0.078300
     11 CAE          1.7260     1.6010    -0.9950 ca         1 0Q1      -0.097000
     12 CAF          0.6010     2.3690    -1.3540 ca         1 0Q1      -0.102000
     13 CAG         -0.6340     2.0900    -0.7560 ca         1 0Q1      -0.076300
     14 CAH         -1.9400     2.7860    -1.0270 c5         1 0Q1      -0.028100
     15 CAI         -2.7860     2.3090     0.2180 c5         1 0Q1      -0.104400
     16 CAJ         -2.1660     0.9240     0.6880 c5         1 0Q1       0.274600
     17 OAS         -2.2020     0.8270     2.1080 oh         1 0Q1      -0.645000
     18 CAK         -2.8740    -0.2860     0.0270 ca         1 0Q1      -0.112300
     19 CAL         -2.6490    -1.5770     0.5640 ca         1 0Q1      -0.098000
     20 CAM         -3.2410    -2.7180    -0.0010 ca         1 0Q1      -0.113500
     21 CAN         -4.0680    -2.5980    -1.1260 ca         1 0Q1      -0.104000
     22 CAO         -4.2940    -1.3330    -1.6860 ca         1 0Q1      -0.113500
     23 CAP         -3.7010    -0.1900    -1.1220 ca         1 0Q1      -0.098000
     24 H1           5.8000     1.4190     0.4450 hc         1 0Q1       0.063367
     25 H2           4.9860     1.5010    -1.1250 hc         1 0Q1       0.063367
     26 H3           4.2360     2.2340     0.3150 hc         1 0Q1       0.063367
     27 H4           1.1930    -2.5420     1.7640 hc         1 0Q1       0.057700
     28 H5           0.9190    -2.4090     0.0120 hc         1 0Q1       0.057700
     29 H6           2.0020    -3.6470     0.6470 hc         1 0Q1       0.057700
     30 H7           0.2340    -0.4610     1.2980 ha         1 0Q1       0.126000
     31 H8           2.6660     1.8070    -1.4950 ha         1 0Q1       0.113000
     32 H9           0.6900     3.1610    -2.0950 ha         1 0Q1       0.115000
     33 H10         -1.8430     3.8770    -1.0650 hc         1 0Q1       0.054700
     34 H11         -2.3760     2.4610    -1.9780 hc         1 0Q1       0.054700
     35 H12         -2.6640     3.0490     1.0170 hc         1 0Q1       0.056700
     36 H13         -3.8640     2.2750     0.0270 hc         1 0Q1       0.056700
     37 H14         -3.1420     0.6770     2.3420 ho         1 0Q1       0.448000
     38 H15         -2.0030    -1.7010     1.4300 ha         1 0Q1       0.117000
     39 H16         -3.0550    -3.6980     0.4340 ha         1 0Q1       0.113000
     40 H17         -4.5270    -3.4810    -1.5650 ha         1 0Q1       0.114000
     41 H18         -4.9280    -1.2370    -2.5650 ha         1 0Q1       0.113000
     42 H19         -3.8960     0.7620    -1.6040 ha         1 0Q1       0.117000
@<TRIPOS>BOND
     1     1     2 1   
     2     1    24 1   
     3     1    25 1   
     4     1    26 1   
     5     2     3 1   
     6     2     7 2   
     7     3     4 1   
     8     4     5 2   
     9     5     6 1   
    10     5     7 1   
    11     6    27 1   
    12     6    28 1   
    13     6    29 1   
    14     7     8 1   
    15     8     9 ar  
    16     8    11 ar  
    17     9    10 ar  
    18     9    30 1   
    19    10    13 ar  
    20    10    16 1   
    21    11    12 ar  
    22    11    31 1   
    23    12    13 ar  
    24    12    32 1   
    25    13    14 1   
    26    14    15 1   
    27    14    33 1   
    28    14    34 1   
    29    15    16 1   
    30    15    35 1   
    31    15    36 1   
    32    16    17 1   
    33    16    18 1   
    34    17    37 1   
    35    18    19 ar  
    36    18    23 ar  
    37    19    20 ar  
    38    19    38 1   
    39    20    21 ar  
    40    20    39 1   
    41    21    22 ar  
    42    21    40 1   
    43    22    23 ar  
    44    22    41 1   
    45    23    42 1   
@<TRIPOS>SUBSTRUCTURE
     1 0Q1         1 TEMP              0 ****  ****    0 ROOT
