@<TRIPOS>MOLECULE
0Q2
   38    41     1     0     0
SMALL
No Charge or Current Charge


@<TRIPOS>ATOM
      1 C1           2.1440    -2.9300    -1.6030 c3         1 0Q2      -0.111400
      2 C2           1.0690    -2.2360    -0.8100 cc         1 0Q2       0.416800
      3 N3           0.3120    -2.8790     0.0940 nd         1 0Q2      -0.563100
      4 C4          -0.6070    -1.9170     0.5030 ca         1 0Q2       0.005400
      5 C5          -1.7440    -2.1230     1.3230 ca         1 0Q2       0.399900
      6 N6          -2.7320    -1.2000     1.4330 nb         1 0Q2      -0.632000
      7 C7          -2.5750    -0.0840     0.7050 ca         1 0Q2       0.489000
      8 C8          -1.4710     0.2170    -0.0980 ca         1 0Q2      -0.168300
      9 C9          -0.3990    -0.7110    -0.1260 ca         1 0Q2      -0.005200
     10 N10          0.7720    -0.8600    -0.8610 na         1 0Q2      -0.187600
     11 C11          1.8530     0.1740    -1.0820 c6         1 0Q2       0.107300
     12 C13          3.0820    -0.0510    -0.1390 c6         1 0Q2      -0.098400
     13 C14          2.8110     0.4230     1.3080 c6         1 0Q2      -0.072400
     14 C15          2.4590     1.9280     1.3220 c6         1 0Q2      -0.113400
     15 C16          1.2440     2.2180     0.4120 c6         1 0Q2       0.166300
     16 C18          1.4770     1.6790    -1.0310 c6         1 0Q2      -0.086400
     17 O19          1.0060     3.6270     0.3670 oh         1 0Q2      -0.666000
     18 C20         -1.8060     1.4530    -0.9290 c5         1 0Q2      -0.139400
     19 C21         -3.2250     1.6920    -0.4150 c2         1 0Q2       0.398200
     20 N22         -3.5810     0.8470     0.5070 ne         1 0Q2      -0.587700
     21 H1           2.9500    -3.2780    -0.9480 hc         1 0Q2       0.059367
     22 H2           1.7310    -3.8050    -2.1170 hc         1 0Q2       0.059367
     23 H3           2.5770    -2.2740    -2.3660 hc         1 0Q2       0.059367
     24 H4          -1.9060    -3.0760     1.8270 h4         1 0Q2       0.039100
     25 H6           2.2090    -0.0030    -2.1070 h1         1 0Q2       0.062700
     26 H7           3.4060    -1.0970    -0.1250 hc         1 0Q2       0.053700
     27 H8           3.9410     0.5060    -0.5380 hc         1 0Q2       0.053700
     28 H9           1.9920    -0.1620     1.7510 hc         1 0Q2       0.052700
     29 H10          3.6970     0.2430     1.9320 hc         1 0Q2       0.052700
     30 H11          2.2450     2.2460     2.3510 hc         1 0Q2       0.050200
     31 H12          3.3280     2.5120     0.9870 hc         1 0Q2       0.050200
     32 H13          0.3780     1.7120     0.8580 h1         1 0Q2       0.044700
     33 H14          2.3130     2.2440    -1.4650 hc         1 0Q2       0.065700
     34 H15          0.6430     1.8830    -1.7070 hc         1 0Q2       0.065700
     35 H16          0.9050     3.9260     1.2970 ho         1 0Q2       0.449000
     36 H17         -1.2160     2.3420    -0.7030 hc         1 0Q2       0.094200
     37 H18         -3.8790     2.5020    -0.7280 h4         1 0Q2       0.041800
     38 H5          -1.7930     1.2710    -2.0090 hc         1 0Q2       0.094200
@<TRIPOS>BOND
     1     1     2 1   
     2     1    21 1   
     3     1    22 1   
     4     1    23 1   
     5     2     3 2   
     6     2    10 1   
     7     3     4 1   
     8     4     5 ar  
     9     4     9 ar  
    10     5     6 ar  
    11     5    24 1   
    12     6     7 ar  
    13     7     8 ar  
    14     7    20 1   
    15     8     9 ar  
    16     8    18 1   
    17     9    10 1   
    18    10    11 1   
    19    11    12 1   
    20    11    16 1   
    21    11    25 1   
    22    12    13 1   
    23    12    26 1   
    24    12    27 1   
    25    13    14 1   
    26    13    28 1   
    27    13    29 1   
    28    14    15 1   
    29    14    30 1   
    30    14    31 1   
    31    15    16 1   
    32    15    17 1   
    33    15    32 1   
    34    16    33 1   
    35    16    34 1   
    36    17    35 1   
    37    18    19 1   
    38    18    36 1   
    39    18    38 1   
    40    19    20 2   
    41    19    37 1   
@<TRIPOS>SUBSTRUCTURE
     1 0Q2         1 TEMP              0 ****  ****    0 ROOT
