@<TRIPOS>MOLECULE
0Q2
   38    41     1     0     0
SMALL
abcg2


@<TRIPOS>ATOM
      1 C1           2.3000    -2.8680    -1.1490 c3         1 0Q2      -0.111400
      2 C2           1.0970    -2.2240    -0.5510 cc         1 0Q2       0.416800
      3 N3           0.1650    -2.9230     0.0220 nd         1 0Q2      -0.563100
      4 C4          -0.8320    -2.0340     0.3010 ca         1 0Q2       0.005400
      5 C5          -2.0630    -2.3030     0.8830 ca         1 0Q2       0.399900
      6 N6          -2.9980    -1.3780     0.9940 nb         1 0Q2      -0.632000
      7 C7          -2.7060    -0.1860     0.4890 ca         1 0Q2       0.489000
      8 C8          -1.5010     0.2270    -0.0970 ca         1 0Q2      -0.168300
      9 C9          -0.4890    -0.7370    -0.1510 ca         1 0Q2      -0.005200
     10 N10          0.8030    -0.8740    -0.6310 na         1 0Q2      -0.187600
     11 C11          1.8170     0.1050    -1.0870 c6         1 0Q2       0.107300
     12 C13          3.1270    -0.0110    -0.2940 c6         1 0Q2      -0.098400
     13 C14          3.0150     0.5110     1.1300 c6         1 0Q2      -0.072400
     14 C15          2.5930     1.9730     1.1290 c6         1 0Q2      -0.113400
     15 C16          1.2800     2.1350     0.3780 c6         1 0Q2       0.166300
     16 C18          1.3680     1.5590    -1.0340 c6         1 0Q2      -0.086400
     17 O19          0.9040     3.4910     0.2370 oh         1 0Q2      -0.666000
     18 C20         -1.7640     1.6070    -0.6120 c5         1 0Q2      -0.139400
     19 C21         -3.1760     1.8060    -0.1730 c2         1 0Q2       0.398200
     20 N22         -3.6880     0.8180     0.4510 ne         1 0Q2      -0.587700
     21 H1           3.1090    -2.9850    -0.4280 hc         1 0Q2       0.059367
     22 H2           2.0160    -3.8650    -1.4800 hc         1 0Q2       0.059367
     23 H3           2.6840    -2.3200    -2.0070 hc         1 0Q2       0.059367
     24 H4          -2.2870    -3.3010     1.2460 h4         1 0Q2       0.039100
     25 H6           2.0210    -0.1330    -2.1340 h1         1 0Q2       0.062700
     26 H7           3.5220    -1.0220    -0.2930 hc         1 0Q2       0.053700
     27 H8           3.8630     0.5880    -0.8380 hc         1 0Q2       0.053700
     28 H9           2.2980    -0.0900     1.7000 hc         1 0Q2       0.052700
     29 H10          3.9750     0.3950     1.6350 hc         1 0Q2       0.052700
     30 H11          2.4790     2.3430     2.1520 hc         1 0Q2       0.050200
     31 H12          3.3670     2.5830     0.6490 hc         1 0Q2       0.050200
     32 H13          0.5150     1.5900     0.9500 h1         1 0Q2       0.044700
     33 H14          2.1280     2.1210    -1.5850 hc         1 0Q2       0.065700
     34 H15          0.4430     1.7020    -1.5880 hc         1 0Q2       0.065700
     35 H16          0.7820     3.8610     1.1180 ho         1 0Q2       0.449000
     36 H17         -1.1360     2.4030    -0.2080 hc         1 0Q2       0.094200
     37 H18         -3.7310     2.7190    -0.3550 h4         1 0Q2       0.041800
     38 H5          -1.6870     1.6750    -1.7020 hc         1 0Q2       0.094200
@<TRIPOS>BOND
     1     1     2 1   
     2     1    21 1   
     3     1    22 1   
     4     1    23 1   
     5     2     3 2   
     6     2    10 1   
     7     3     4 1   
     8     4     5 ar  
     9     4     9 ar  
    10     5     6 ar  
    11     5    24 1   
    12     6     7 ar  
    13     7     8 ar  
    14     7    20 1   
    15     8     9 ar  
    16     8    18 1   
    17     9    10 1   
    18    10    11 1   
    19    11    12 1   
    20    11    16 1   
    21    11    25 1   
    22    12    13 1   
    23    12    26 1   
    24    12    27 1   
    25    13    14 1   
    26    13    28 1   
    27    13    29 1   
    28    14    15 1   
    29    14    30 1   
    30    14    31 1   
    31    15    16 1   
    32    15    17 1   
    33    15    32 1   
    34    16    33 1   
    35    16    34 1   
    36    17    35 1   
    37    18    19 1   
    38    18    36 1   
    39    18    38 1   
    40    19    20 2   
    41    19    37 1   
@<TRIPOS>SUBSTRUCTURE
     1 0Q2         1 TEMP              0 ****  ****    0 ROOT
