@<TRIPOS>MOLECULE
0Q5
   91    95     1     0     0
SMALL
bcc


@<TRIPOS>ATOM
      1 O4          -2.0370     0.9870     2.3150 o          1 0Q5      -0.562100
      2 C27         -1.6220     1.0140     1.1680 c          1 0Q5       0.685700
      3 N3          -1.7490     2.0940     0.3670 n          1 0Q5      -0.475800
      4 C36         -2.1830     3.3680     0.9150 c6         1 0Q5       0.093000
      5 C35         -0.9590     4.2320     1.1820 c6         1 0Q5      -0.058100
      6 C30          0.0200     4.2010     0.0340 ca         1 0Q5      -0.066300
      7 C31          1.0640     5.1230    -0.0160 ca         1 0Q5      -0.129000
      8 C32          1.9900     5.1030    -1.0460 ca         1 0Q5      -0.121000
      9 C33          1.8870     4.1470    -2.0490 ca         1 0Q5      -0.122000
     10 C34          0.8550     3.2240    -2.0090 ca         1 0Q5      -0.110000
     11 C29         -0.0800     3.2450    -0.9780 ca         1 0Q5      -0.116300
     12 C28         -1.2090     2.2420    -0.9670 c6         1 0Q5       0.145300
     13 C           -0.9090    -0.1890     0.6210 ca         1 0Q5      -0.144600
     14 C5          -1.5510    -1.4330     0.5720 ca         1 0Q5       0.100000
     15 C6          -2.9810    -1.5860     0.8540 cc         1 0Q5      -0.224300
     16 C8          -4.0350    -1.0120     0.1750 cd         1 0Q5      -0.042600
     17 C9          -4.0250    -0.2070    -1.0790 c3         1 0Q5      -0.019100
     18 C10         -4.3720    -1.0410    -2.3150 c3         1 0Q5      -0.077400
     19 C11         -4.2800    -0.2250    -3.5970 c3         1 0Q5      -0.074400
     20 C12         -4.5580    -1.0570    -4.8410 c3         1 0Q5      -0.089100
     21 N1          -5.1590    -1.4820     0.7730 na         1 0Q5       0.175300
     22 C13         -6.5050    -1.2130     0.4350 ca         1 0Q5       0.012800
     23 C18         -6.9520     0.0990     0.3500 ca         1 0Q5      -0.118000
     24 C17         -8.2730     0.3490     0.0030 ca         1 0Q5      -0.121500
     25 C16         -9.1460    -0.7040    -0.2340 ca         1 0Q5      -0.123000
     26 C15         -8.6940    -2.0130    -0.1240 ca         1 0Q5      -0.121500
     27 C14         -7.3730    -2.2730     0.2050 ca         1 0Q5      -0.118000
     28 N           -4.8910    -2.3210     1.7810 nd         1 0Q5      -0.499800
     29 C7          -3.5810    -2.4040     1.8370 cc         1 0Q5       0.345600
     30 C19         -2.9100    -3.2750     2.8440 c3         1 0Q5       0.111100
     31 O           -1.9840    -2.5020     3.5690 oh         1 0Q5      -0.572800
     32 C4          -0.8020    -2.5510     0.2110 ca         1 0Q5      -0.141000
     33 C3           0.5480    -2.4550    -0.0730 ca         1 0Q5      -0.080000
     34 C2           1.1810    -1.2160    -0.0250 ca         1 0Q5      -0.176600
     35 C1           0.4400    -0.0890     0.3150 ca         1 0Q5      -0.052000
     36 C20          2.6110    -1.0250    -0.3760 c          1 0Q5       0.716700
     37 O1           3.0500     0.0320    -0.7750 o          1 0Q5      -0.560100
     38 N2           3.4120    -2.1280    -0.2100 ns         1 0Q5      -0.650300
     39 S            5.0060    -2.2240    -0.7510 s6         1 0Q5       1.210600
     40 O2           5.3950    -3.5910    -0.4460 o          1 0Q5      -0.595300
     41 O3           5.0580    -1.7600    -2.1240 o          1 0Q5      -0.595300
     42 C21          5.9160    -1.0970     0.3000 c3         1 0Q5      -0.158600
     43 C22          7.4010    -1.1530    -0.0140 c3         1 0Q5       0.061400
     44 SI1          8.4080     0.0290     1.0860 s6         1 0Q5      -0.652200
     45 C26         10.2130    -0.1170     0.5790 c3         1 0Q5       0.005033
     46 C25          7.7910     1.7880     0.8240 c3         1 0Q5       0.005033
     47 C24          8.1860    -0.4770     2.8860 c3         1 0Q5       0.005033
     48 H1          -2.8370     3.8450     0.1810 h1         1 0Q5       0.063200
     49 H2          -2.7620     3.2130     1.8210 h1         1 0Q5       0.063200
     50 H3          -1.2710     5.2590     1.3830 hc         1 0Q5       0.060200
     51 H4          -0.4610     3.8800     2.0900 hc         1 0Q5       0.060200
     52 H5           1.1490     5.8690     0.7670 ha         1 0Q5       0.129000
     53 H6           2.7930     5.8290    -1.0650 ha         1 0Q5       0.131000
     54 H7           2.6100     4.1170    -2.8530 ha         1 0Q5       0.136000
     55 H8           0.7760     2.4690    -2.7820 ha         1 0Q5       0.133000
     56 H9          -0.8820     1.2870    -1.3710 h1         1 0Q5       0.059700
     57 H10         -2.0160     2.5890    -1.6220 h1         1 0Q5       0.059700
     58 H11         -4.6910     0.6560    -1.0150 hc         1 0Q5       0.059200
     59 H12         -3.0210     0.1970    -1.2060 hc         1 0Q5       0.059200
     60 H13         -3.6890    -1.8930    -2.3690 hc         1 0Q5       0.046700
     61 H14         -5.3800    -1.4570    -2.2180 hc         1 0Q5       0.046700
     62 H15         -4.9850     0.6100    -3.5470 hc         1 0Q5       0.036700
     63 H16         -3.2840     0.2240    -3.6700 hc         1 0Q5       0.036700
     64 H17         -3.8370    -1.8700    -4.9400 hc         1 0Q5       0.034033
     65 H18         -5.5540    -1.5020    -4.8030 hc         1 0Q5       0.034033
     66 H19         -4.5020    -0.4520    -5.7460 hc         1 0Q5       0.034033
     67 H20         -6.2830     0.9200     0.5690 ha         1 0Q5       0.149000
     68 H21         -8.6200     1.3710    -0.0670 ha         1 0Q5       0.137000
     69 H22        -10.1760    -0.5050    -0.4970 ha         1 0Q5       0.136000
     70 H23         -9.3710    -2.8380    -0.3020 ha         1 0Q5       0.137000
     71 H24         -7.0140    -3.2910     0.2800 ha         1 0Q5       0.149000
     72 H25         -3.6790    -3.7210     3.4860 h1         1 0Q5       0.030700
     73 H26         -2.4160    -4.1080     2.3270 h1         1 0Q5       0.030700
     74 H27         -1.4230    -3.1050     4.0670 ho         1 0Q5       0.400000
     75 H28         -1.2900    -3.5140     0.1370 ha         1 0Q5       0.141000
     76 H29          1.0810    -3.3490    -0.3680 ha         1 0Q5       0.135000
     77 H30          0.9360     0.8740     0.3570 ha         1 0Q5       0.161000
     78 H31          3.0810    -2.9450     0.2880 hn         1 0Q5       0.347500
     79 H32          5.4920    -0.1080     0.1260 h1         1 0Q5       0.099200
     80 H33          5.6900    -1.3980     1.3240 h1         1 0Q5       0.099200
     81 H34          7.7850    -2.1660     0.1320 h1         1 0Q5       0.075200
     82 H35          7.5800    -0.8850    -1.0580 h1         1 0Q5       0.075200
     83 H36         10.5810    -1.1360     0.7120 h1         1 0Q5       0.056922
     84 H37         10.3550     0.1530    -0.4690 h1         1 0Q5       0.056922
     85 H38         10.8440     0.5430     1.1780 h1         1 0Q5       0.056922
     86 H39          8.3660     2.4950     1.4250 h1         1 0Q5       0.056922
     87 H40          7.8870     2.0900    -0.2210 h1         1 0Q5       0.056922
     88 H41          6.7420     1.9030     1.1050 h1         1 0Q5       0.056922
     89 H42          8.4810    -1.5160     3.0450 h1         1 0Q5       0.056922
     90 H43          8.7980     0.1430     3.5430 h1         1 0Q5       0.056922
     91 H44          7.1490    -0.3730     3.2140 h1         1 0Q5       0.056922
@<TRIPOS>BOND
     1     1     2 2   
     2     2     3 1   
     3     2    13 1   
     4     3     4 1   
     5     3    12 1   
     6     4     5 1   
     7     4    48 1   
     8     4    49 1   
     9     5     6 1   
    10     5    50 1   
    11     5    51 1   
    12     6     7 ar  
    13     6    11 ar  
    14     7     8 ar  
    15     7    52 1   
    16     8     9 ar  
    17     8    53 1   
    18     9    10 ar  
    19     9    54 1   
    20    10    11 ar  
    21    10    55 1   
    22    11    12 1   
    23    12    56 1   
    24    12    57 1   
    25    13    14 ar  
    26    13    35 ar  
    27    14    15 1   
    28    14    32 ar  
    29    15    16 2   
    30    15    29 1   
    31    16    17 1   
    32    16    21 1   
    33    17    18 1   
    34    17    58 1   
    35    17    59 1   
    36    18    19 1   
    37    18    60 1   
    38    18    61 1   
    39    19    20 1   
    40    19    62 1   
    41    19    63 1   
    42    20    64 1   
    43    20    65 1   
    44    20    66 1   
    45    21    22 1   
    46    21    28 1   
    47    22    23 ar  
    48    22    27 ar  
    49    23    24 ar  
    50    23    67 1   
    51    24    25 ar  
    52    24    68 1   
    53    25    26 ar  
    54    25    69 1   
    55    26    27 ar  
    56    26    70 1   
    57    27    71 1   
    58    28    29 2   
    59    29    30 1   
    60    30    31 1   
    61    30    72 1   
    62    30    73 1   
    63    31    74 1   
    64    32    33 ar  
    65    32    75 1   
    66    33    34 ar  
    67    33    76 1   
    68    34    35 ar  
    69    34    36 1   
    70    35    77 1   
    71    36    37 2   
    72    36    38 1   
    73    38    39 1   
    74    38    78 1   
    75    39    40 2   
    76    39    41 2   
    77    39    42 1   
    78    42    43 1   
    79    42    79 1   
    80    42    80 1   
    81    43    44 1   
    82    43    81 1   
    83    43    82 1   
    84    44    45 1   
    85    44    46 1   
    86    44    47 1   
    87    45    83 1   
    88    45    84 1   
    89    45    85 1   
    90    46    86 1   
    91    46    87 1   
    92    46    88 1   
    93    47    89 1   
    94    47    90 1   
    95    47    91 1   
@<TRIPOS>SUBSTRUCTURE
     1 0Q5         1 TEMP              0 ****  ****    0 ROOT
