@<TRIPOS>MOLECULE
0Q5
   91    95     1     0     0
SMALL
No Charge or Current Charge


@<TRIPOS>ATOM
      1 O4          -2.5420     1.2970     2.2060 o          1 0Q5      -0.562100
      2 C27         -1.8350     1.2940     1.2060 c          1 0Q5       0.618700
      3 N3          -1.5940     2.4910     0.4930 n          1 0Q5      -0.408800
      4 C36         -2.0900     3.7940     0.9980 c6         1 0Q5       0.093000
      5 C35         -1.1090     4.9380     0.6550 c6         1 0Q5      -0.058100
      6 C30         -0.5680     4.8720    -0.7750 ca         1 0Q5      -0.066300
      7 C31          0.1140     5.9790    -1.3150 ca         1 0Q5      -0.111000
      8 C32          0.6380     5.9240    -2.6170 ca         1 0Q5      -0.103000
      9 C33          0.4850     4.7580    -3.3860 ca         1 0Q5      -0.104000
     10 C34         -0.1900     3.6480    -2.8510 ca         1 0Q5      -0.092000
     11 C29         -0.7160     3.6980    -1.5450 ca         1 0Q5      -0.116300
     12 C28         -1.4670     2.4860    -0.9900 c6         1 0Q5       0.145300
     13 C           -1.0600     0.0620     0.7930 ca         1 0Q5      -0.144600
     14 C5          -1.5990    -1.2430     0.9290 ca         1 0Q5       0.100000
     15 C6          -2.9930    -1.4980     1.3150 cc         1 0Q5      -0.159000
     16 C8          -4.0550    -1.0490     0.5650 cd         1 0Q5      -0.093300
     17 C9          -4.1240    -0.2020    -0.7000 c3         1 0Q5      -0.019100
     18 C10         -3.3300    -0.8040    -1.8820 c3         1 0Q5      -0.077400
     19 C11         -3.5270    -0.0320    -3.2050 c3         1 0Q5      -0.074400
     20 C12         -2.6920    -0.6060    -4.3650 c3         1 0Q5      -0.089100
     21 N1          -5.1400    -1.6900     1.1840 na         1 0Q5       0.226000
     22 C13         -6.4130    -1.4830     0.6530 ca         1 0Q5       0.012800
     23 C18         -7.1830    -0.3800     1.0690 ca         1 0Q5      -0.100000
     24 C17         -8.4610    -0.1650     0.5240 ca         1 0Q5      -0.103500
     25 C16         -8.9740    -1.0530    -0.4380 ca         1 0Q5      -0.105000
     26 C15         -8.2090    -2.1560    -0.8550 ca         1 0Q5      -0.103500
     27 C14         -6.9310    -2.3720    -0.3100 ca         1 0Q5      -0.100000
     28 N           -4.8260    -2.5760     2.1890 nd         1 0Q5      -0.499800
     29 C7          -3.5120    -2.4540     2.2320 cc         1 0Q5       0.280300
     30 C19         -2.6560    -3.2500     3.2080 c3         1 0Q5       0.134300
     31 O           -1.8460    -2.4130     4.0560 oh         1 0Q5      -0.635000
     32 C4          -0.7760    -2.3500     0.6480 ca         1 0Q5      -0.123000
     33 C3           0.5510    -2.1890     0.2240 ca         1 0Q5      -0.062000
     34 C2           1.1040    -0.8980     0.0850 ca         1 0Q5      -0.176600
     35 C1           0.2880     0.2130     0.3860 ca         1 0Q5      -0.034000
     36 C20          2.5350    -0.6680    -0.3580 c          1 0Q5       0.649700
     37 O1           3.0050     0.4540    -0.4520 o          1 0Q5      -0.560100
     38 N2           3.2710    -1.7790    -0.6250 ns         1 0Q5      -0.583300
     39 S            4.8250    -1.8590    -1.2290 s6         1 0Q5       1.179800
     40 O2           5.0910    -3.2700    -1.5240 o          1 0Q5      -0.524500
     41 O3           4.9670    -0.8500    -2.2850 o          1 0Q5      -0.524500
     42 C21          5.8450    -1.3690     0.1750 c3         1 0Q5      -0.269400
     43 C22          7.3590    -1.3980    -0.1370 c3         1 0Q5      -0.049400
     44 SI1          8.3400    -0.8940     1.3050 s6         1 0Q5      -0.209000
     45 C26         10.1010    -0.9410     0.8790 c3         1 0Q5      -0.105767
     46 C25          7.8850     0.7920     1.7940 c3         1 0Q5      -0.105767
     47 C24          8.0260    -2.0290     2.6850 c3         1 0Q5      -0.105767
     48 H1          -3.0680     4.0030     0.5400 h1         1 0Q5       0.063200
     49 H2          -2.2370     3.7640     2.0870 h1         1 0Q5       0.063200
     50 H3          -1.5990     5.9040     0.8330 hc         1 0Q5       0.060200
     51 H4          -0.2590     4.8920     1.3490 hc         1 0Q5       0.060200
     52 H5           0.2400     6.8830    -0.7230 ha         1 0Q5       0.111000
     53 H6           1.1630     6.7820    -3.0300 ha         1 0Q5       0.113000
     54 H7           0.8900     4.7140    -4.3940 ha         1 0Q5       0.118000
     55 H8          -0.3080     2.7500    -3.4540 ha         1 0Q5       0.115000
     56 H9          -0.9830     1.5680    -1.3470 h1         1 0Q5       0.059700
     57 H10         -2.4780     2.4950    -1.4210 h1         1 0Q5       0.059700
     58 H11         -5.1600    -0.0700    -1.0310 hc         1 0Q5       0.059200
     59 H12         -3.7710     0.8110    -0.4970 hc         1 0Q5       0.059200
     60 H13         -2.2610    -0.8210    -1.6410 hc         1 0Q5       0.046700
     61 H14         -3.6410    -1.8460    -2.0260 hc         1 0Q5       0.046700
     62 H15         -4.5880    -0.0550    -3.4850 hc         1 0Q5       0.036700
     63 H16         -3.2570     1.0200    -3.0620 hc         1 0Q5       0.036700
     64 H17         -1.6210    -0.5610    -4.1310 hc         1 0Q5       0.034033
     65 H18         -2.9610    -1.6510    -4.5580 hc         1 0Q5       0.034033
     66 H19         -2.8660    -0.0310    -5.2830 hc         1 0Q5       0.034033
     67 H20         -6.7880     0.3100     1.8120 ha         1 0Q5       0.131000
     68 H21         -9.0530     0.6890     0.8460 ha         1 0Q5       0.119000
     69 H22         -9.9620    -0.8860    -0.8600 ha         1 0Q5       0.118000
     70 H23         -8.6060    -2.8430    -1.5990 ha         1 0Q5       0.119000
     71 H24         -6.3410    -3.2260    -0.6360 ha         1 0Q5       0.131000
     72 H25         -3.3200    -3.8650     3.8290 h1         1 0Q5       0.030700
     73 H26         -2.0230    -3.9470     2.6470 h1         1 0Q5       0.030700
     74 H27         -1.3510    -3.0080     4.6610 ho         1 0Q5       0.439000
     75 H28         -1.1820    -3.3550     0.7120 ha         1 0Q5       0.123000
     76 H29          1.1290    -3.0830     0.0060 ha         1 0Q5       0.117000
     77 H30          0.7160     1.2130     0.3290 ha         1 0Q5       0.143000
     78 H31          2.8580    -2.6890    -0.5340 hn         1 0Q5       0.347500
     79 H32          5.5230    -0.3580     0.4470 h1         1 0Q5       0.099200
     80 H33          5.6000    -2.0620     0.9860 h1         1 0Q5       0.099200
     81 H34          7.6780    -2.4110    -0.4170 h1         1 0Q5       0.075200
     82 H35          7.6000    -0.7090    -0.9580 h1         1 0Q5       0.075200
     83 H36         10.3650    -1.9650     0.5860 h1         1 0Q5       0.056922
     84 H37         10.2800    -0.2490     0.0460 h1         1 0Q5       0.056922
     85 H38         10.6840    -0.6360     1.7570 h1         1 0Q5       0.056922
     86 H39          8.6500     1.1780     2.4790 h1         1 0Q5       0.056922
     87 H40          7.8320     1.4170     0.8930 h1         1 0Q5       0.056922
     88 H41          6.9090     0.7630     2.2930 h1         1 0Q5       0.056922
     89 H42          8.0520    -3.0580     2.3060 h1         1 0Q5       0.056922
     90 H43          8.8040    -1.8830     3.4440 h1         1 0Q5       0.056922
     91 H44          7.0380    -1.8050     3.1070 h1         1 0Q5       0.056922
@<TRIPOS>BOND
     1     1     2 2   
     2     2     3 1   
     3     2    13 1   
     4     3     4 1   
     5     3    12 1   
     6     4     5 1   
     7     4    48 1   
     8     4    49 1   
     9     5     6 1   
    10     5    50 1   
    11     5    51 1   
    12     6     7 ar  
    13     6    11 ar  
    14     7     8 ar  
    15     7    52 1   
    16     8     9 ar  
    17     8    53 1   
    18     9    10 ar  
    19     9    54 1   
    20    10    11 ar  
    21    10    55 1   
    22    11    12 1   
    23    12    56 1   
    24    12    57 1   
    25    13    14 ar  
    26    13    35 ar  
    27    14    15 1   
    28    14    32 ar  
    29    15    16 2   
    30    15    29 1   
    31    16    17 1   
    32    16    21 1   
    33    17    18 1   
    34    17    58 1   
    35    17    59 1   
    36    18    19 1   
    37    18    60 1   
    38    18    61 1   
    39    19    20 1   
    40    19    62 1   
    41    19    63 1   
    42    20    64 1   
    43    20    65 1   
    44    20    66 1   
    45    21    22 1   
    46    21    28 1   
    47    22    23 ar  
    48    22    27 ar  
    49    23    24 ar  
    50    23    67 1   
    51    24    25 ar  
    52    24    68 1   
    53    25    26 ar  
    54    25    69 1   
    55    26    27 ar  
    56    26    70 1   
    57    27    71 1   
    58    28    29 2   
    59    29    30 1   
    60    30    31 1   
    61    30    72 1   
    62    30    73 1   
    63    31    74 1   
    64    32    33 ar  
    65    32    75 1   
    66    33    34 ar  
    67    33    76 1   
    68    34    35 ar  
    69    34    36 1   
    70    35    77 1   
    71    36    37 2   
    72    36    38 1   
    73    38    39 1   
    74    38    78 1   
    75    39    40 2   
    76    39    41 2   
    77    39    42 1   
    78    42    43 1   
    79    42    79 1   
    80    42    80 1   
    81    43    44 1   
    82    43    81 1   
    83    43    82 1   
    84    44    45 1   
    85    44    46 1   
    86    44    47 1   
    87    45    83 1   
    88    45    84 1   
    89    45    85 1   
    90    46    86 1   
    91    46    87 1   
    92    46    88 1   
    93    47    89 1   
    94    47    90 1   
    95    47    91 1   
@<TRIPOS>SUBSTRUCTURE
     1 0Q5         1 TEMP              0 ****  ****    0 ROOT
