@<TRIPOS>MOLECULE
0Q6
   30    31     1     0     0
SMALL
abcg2


@<TRIPOS>ATOM
      1 CAK         57.6110    18.9220     6.6400 ca         1 0Q6      -0.056000
      2 CAL         58.6280    19.2870     5.7730 ca         1 0Q6      -0.023900
      3 BR          58.5760    18.6920     3.9810 br         1 0Q6      -0.093100
      4 CAN         59.6890    20.0770     6.1940 ca         1 0Q6      -0.072000
      5 CAO         59.7200    20.5030     7.5140 ca         1 0Q6      -0.113000
      6 CAP         58.7060    20.1480     8.3930 ca         1 0Q6      -0.076000
      7 CAJ         57.6500    19.3560     7.9630 ca         1 0Q6      -0.097300
      8 CAI         56.5390    18.9840     8.8990 c3         1 0Q6       0.209900
      9 OAH         55.4160    19.7880     8.5620 os         1 0Q6      -0.338100
     10 CAG         54.2760    19.6300     9.2550 ca         1 0Q6       0.164100
     11 CAF         53.1940    20.4150     8.8470 ca         1 0Q6      -0.186000
     12 CAE         51.9830    20.3200     9.4980 ca         1 0Q6      -0.032500
     13 CAD         51.8130    19.4610    10.5860 ca         1 0Q6      -0.193600
     14 CAB         50.4730    19.3950    11.2380 c          1 0Q6       0.621700
     15 OAC         49.4620    19.7440    10.6420 o          1 0Q6      -0.606100
     16 NAA         50.4410    18.9250    12.4980 nt         1 0Q6      -0.604000
     17 CAR         52.8940    18.6800    10.9800 ca         1 0Q6      -0.032500
     18 CAQ         54.1170    18.7530    10.3270 ca         1 0Q6      -0.186000
     19 H1          56.7920    18.2980     6.3020 ha         1 0Q6       0.134000
     20 H2          60.4810    20.3570     5.5140 ha         1 0Q6       0.131000
     21 H3          60.5430    21.1170     7.8540 ha         1 0Q6       0.121000
     22 H4          58.7410    20.4860     9.4210 ha         1 0Q6       0.118000
     23 H5          56.2890    17.9230     8.7980 h1         1 0Q6       0.044700
     24 H6          56.8440    19.1600     9.9350 h1         1 0Q6       0.044700
     25 H7          53.3160    21.0960     8.0140 ha         1 0Q6       0.126000
     26 H8          51.1550    20.9320     9.1630 ha         1 0Q6       0.124000
     27 H9          49.5620    18.8950    12.9890 hn         1 0Q6       0.311500
     28 H10         51.2710    18.8100    13.0530 hn         1 0Q6       0.311500
     29 H11         52.8030    17.9730    11.7950 ha         1 0Q6       0.124000
     30 H12         54.9230    18.1180    10.6650 ha         1 0Q6       0.126000
@<TRIPOS>BOND
     1     1     2 ar  
     2     1     7 ar  
     3     1    19 1   
     4     2     3 1   
     5     2     4 ar  
     6     4     5 ar  
     7     4    20 1   
     8     5     6 ar  
     9     5    21 1   
    10     6     7 ar  
    11     6    22 1   
    12     7     8 1   
    13     8     9 1   
    14     8    23 1   
    15     8    24 1   
    16     9    10 1   
    17    10    11 ar  
    18    10    18 ar  
    19    11    12 ar  
    20    11    25 1   
    21    12    13 ar  
    22    12    26 1   
    23    13    14 1   
    24    13    17 ar  
    25    14    15 2   
    26    14    16 1   
    27    16    27 1   
    28    16    28 1   
    29    17    18 ar  
    30    17    29 1   
    31    18    30 1   
@<TRIPOS>SUBSTRUCTURE
     1 0Q6         1 TEMP              0 ****  ****    0 ROOT
