@<TRIPOS>MOLECULE
0Q6
   30    31     1     0     0
SMALL
No Charge or Current Charge


@<TRIPOS>ATOM
      1 CAK         57.7370    18.7750     6.6460 ca         1 0Q6      -0.056000
      2 CAL         58.7660    19.1110     5.7490 ca         1 0Q6      -0.023900
      3 Br          58.8160    18.3090     4.0130 br         1 0Q6      -0.093100
      4 CAN         59.7570    20.0340     6.1220 ca         1 0Q6      -0.072000
      5 CAO         59.7170    20.6240     7.3980 ca         1 0Q6      -0.113000
      6 CAP         58.6880    20.2890     8.2970 ca         1 0Q6      -0.076000
      7 CAJ         57.6940    19.3620     7.9260 ca         1 0Q6      -0.097300
      8 CAI         56.5790    18.9980     8.8970 c3         1 0Q6       0.209900
      9 OAH         55.4260    19.7970     8.5830 os         1 0Q6      -0.338100
     10 CAG         54.2450    19.6920     9.2890 ca         1 0Q6       0.164100
     11 CAF         53.1780    20.5140     8.9040 ca         1 0Q6      -0.186000
     12 CAE         51.9490    20.4550     9.5830 ca         1 0Q6      -0.032500
     13 CAD         51.7680    19.5660    10.6660 ca         1 0Q6      -0.193600
     14 CAB         50.4340    19.5240    11.3780 c          1 0Q6       0.621700
     15 OAC         49.4940    20.2320    11.0570 o          1 0Q6      -0.606100
     16 NAA         50.2830    18.6670    12.4100 nt         1 0Q6      -0.604000
     17 CAR         52.8500    18.7370    11.0500 ca         1 0Q6      -0.032500
     18 CAQ         54.0770    18.8000    10.3670 ca         1 0Q6      -0.186000
     19 H1          56.9720    18.0610     6.3460 ha         1 0Q6       0.134000
     20 H2          60.5520    20.2930     5.4270 ha         1 0Q6       0.131000
     21 H3          60.4820    21.3400     7.6890 ha         1 0Q6       0.121000
     22 H4          58.6640    20.7530     9.2810 ha         1 0Q6       0.118000
     23 H5          56.3470    17.9290     8.8000 h1         1 0Q6       0.044700
     24 H6          56.9110    19.1850     9.9260 h1         1 0Q6       0.044700
     25 H7          53.3030    21.2030     8.0730 ha         1 0Q6       0.126000
     26 H8          51.1370    21.1050     9.2630 ha         1 0Q6       0.124000
     27 H9          49.3980    18.6310    12.8910 hn         1 0Q6       0.311500
     28 H10         51.0450    18.0720    12.6930 hn         1 0Q6       0.311500
     29 H11         52.7560    18.0380    11.8770 ha         1 0Q6       0.124000
     30 H12         54.8840    18.1490    10.6910 ha         1 0Q6       0.126000
@<TRIPOS>BOND
     1     1     2 ar  
     2     1     7 ar  
     3     1    19 1   
     4     2     3 1   
     5     2     4 ar  
     6     4     5 ar  
     7     4    20 1   
     8     5     6 ar  
     9     5    21 1   
    10     6     7 ar  
    11     6    22 1   
    12     7     8 1   
    13     8     9 1   
    14     8    23 1   
    15     8    24 1   
    16     9    10 1   
    17    10    11 ar  
    18    10    18 ar  
    19    11    12 ar  
    20    11    25 1   
    21    12    13 ar  
    22    12    26 1   
    23    13    14 1   
    24    13    17 ar  
    25    14    15 2   
    26    14    16 1   
    27    16    27 1   
    28    16    28 1   
    29    17    18 ar  
    30    17    29 1   
    31    18    30 1   
@<TRIPOS>SUBSTRUCTURE
     1 0Q6         1 TEMP              0 ****  ****    0 ROOT
