@<TRIPOS>MOLECULE
0QA
   28    28     1     0     0
SMALL
No Charge or Current Charge


@<TRIPOS>ATOM
      1 O2          -5.5980     0.3370    -0.8770 o          1 0QA      -0.294700
      2 N3          -4.5270    -0.2420    -0.9680 n2         1 0QA       0.198700
      3 N2          -3.9390    -0.5670     0.1920 n3         1 0QA      -0.601400
      4 C10         -4.3960    -0.0280     1.5050 c3         1 0QA       0.176100
      5 C9          -2.5400    -1.0510     0.1770 c3         1 0QA       0.225800
      6 C8          -1.4970     0.0880     0.1250 c3         1 0QA      -0.091400
      7 C7          -0.0330    -0.4260     0.0850 c3         1 0QA      -0.175400
      8 C6           1.0630     0.6580     0.0300 c          1 0QA       0.589700
      9 O1           0.7600     1.8450     0.0260 o          1 0QA      -0.516100
     10 C5           2.5130     0.2510    -0.0180 ca         1 0QA      -0.232600
     11 C1           3.5320     1.2270    -0.0740 ca         1 0QA      -0.020000
     12 C2           4.8680     0.8010    -0.1170 ca         1 0QA      -0.175000
     13 C3           5.1490    -0.5730    -0.1030 ca         1 0QA       0.360900
     14 N1           4.1830    -1.5160    -0.0490 nb         1 0QA      -0.672000
     15 C4           2.8940    -1.1060    -0.0080 ca         1 0QA       0.370900
     16 H1          -5.4810    -0.1500     1.6270 h1         1 0QA       0.054033
     17 H2          -3.9110    -0.5500     2.3400 h1         1 0QA       0.054033
     18 H3          -4.1600     1.0410     1.5880 h1         1 0QA       0.054033
     19 H4          -2.3450    -1.6620     1.0690 h1         1 0QA       0.059700
     20 H5          -2.3860    -1.7080    -0.6910 h1         1 0QA       0.059700
     21 H6          -1.6880     0.7050    -0.7620 hc         1 0QA       0.065700
     22 H7          -1.6280     0.7360     1.0010 hc         1 0QA       0.065700
     23 H8           0.1860    -1.0790     0.9380 hc         1 0QA       0.065700
     24 H9           0.1300    -1.1080    -0.7570 hc         1 0QA       0.065700
     25 H10          3.2990     2.2910    -0.0850 ha         1 0QA       0.141000
     26 H11          5.6800     1.5210    -0.1610 ha         1 0QA       0.131000
     27 H12          6.1780    -0.9300    -0.1360 h4         1 0QA       0.023100
     28 H13          2.1590    -1.9070     0.0350 h4         1 0QA       0.018100
@<TRIPOS>BOND
     1     1     2 2   
     2     2     3 1   
     3     3     4 1   
     4     3     5 1   
     5     4    16 1   
     6     4    17 1   
     7     4    18 1   
     8     5     6 1   
     9     5    19 1   
    10     5    20 1   
    11     6     7 1   
    12     6    21 1   
    13     6    22 1   
    14     7     8 1   
    15     7    23 1   
    16     7    24 1   
    17     8     9 2   
    18     8    10 1   
    19    10    11 ar  
    20    10    15 ar  
    21    11    12 ar  
    22    11    25 1   
    23    12    13 ar  
    24    12    26 1   
    25    13    14 ar  
    26    13    27 1   
    27    14    15 ar  
    28    15    28 1   
@<TRIPOS>SUBSTRUCTURE
     1 0QA         1 TEMP              0 ****  ****    0 ROOT
