@<TRIPOS>MOLECULE
0QA
   28    28     1     0     0
SMALL
abcg2


@<TRIPOS>ATOM
      1 O2          -5.6460    -0.0530    -0.7880 o          1 0QA      -0.294700
      2 N3          -4.5160    -0.5060    -0.8680 n2         1 0QA       0.198700
      3 N2          -3.8180    -0.4750     0.2200 n3         1 0QA      -0.601400
      4 C10         -4.3500     0.0810     1.4480 c3         1 0QA       0.176100
      5 C9          -2.4560    -0.9640     0.1370 c3         1 0QA       0.225800
      6 C8          -1.4310     0.1610     0.1430 c3         1 0QA      -0.091400
      7 C7          -0.0220    -0.4060     0.0730 c3         1 0QA      -0.175400
      8 C6           1.0540     0.6500     0.0770 c          1 0QA       0.589700
      9 O1           0.7870     1.8300     0.1370 o          1 0QA      -0.516100
     10 C5           2.4770     0.2130     0.0070 ca         1 0QA      -0.232600
     11 C1           3.4940     1.1670     0.0130 ca         1 0QA      -0.020000
     12 C2           4.8080     0.7480    -0.0510 ca         1 0QA      -0.175000
     13 C3           5.0650    -0.6160    -0.1200 ca         1 0QA       0.360900
     14 N1           4.1100    -1.5380    -0.1280 nb         1 0QA      -0.672000
     15 C4           2.8510    -1.1270    -0.0660 ca         1 0QA       0.370900
     16 H1          -5.2440    -0.4590     1.7620 h1         1 0QA       0.054033
     17 H2          -3.5960    -0.0150     2.2230 h1         1 0QA       0.054033
     18 H3          -4.6020     1.1340     1.3300 h1         1 0QA       0.054033
     19 H4          -2.2840    -1.6480     0.9710 h1         1 0QA       0.059700
     20 H5          -2.3820    -1.5470    -0.7820 h1         1 0QA       0.059700
     21 H6          -1.6160     0.8200    -0.7080 hc         1 0QA       0.065700
     22 H7          -1.5430     0.7660     1.0450 hc         1 0QA       0.065700
     23 H8           0.1560    -1.0890     0.9110 hc         1 0QA       0.065700
     24 H9           0.0970    -1.0200    -0.8260 hc         1 0QA       0.065700
     25 H10          3.2570     2.2210     0.0680 ha         1 0QA       0.141000
     26 H11          5.6240     1.4570    -0.0470 ha         1 0QA       0.131000
     27 H12          6.0860    -0.9760    -0.1710 h4         1 0QA       0.023100
     28 H13          2.1040    -1.9120    -0.0750 h4         1 0QA       0.018100
@<TRIPOS>BOND
     1     1     2 2   
     2     2     3 1   
     3     3     4 1   
     4     3     5 1   
     5     4    16 1   
     6     4    17 1   
     7     4    18 1   
     8     5     6 1   
     9     5    19 1   
    10     5    20 1   
    11     6     7 1   
    12     6    21 1   
    13     6    22 1   
    14     7     8 1   
    15     7    23 1   
    16     7    24 1   
    17     8     9 2   
    18     8    10 1   
    19    10    11 ar  
    20    10    15 ar  
    21    11    12 ar  
    22    11    25 1   
    23    12    13 ar  
    24    12    26 1   
    25    13    14 ar  
    26    13    27 1   
    27    14    15 ar  
    28    15    28 1   
@<TRIPOS>SUBSTRUCTURE
     1 0QA         1 TEMP              0 ****  ****    0 ROOT
