@<TRIPOS>MOLECULE
0QB
  102   105     1     0     0
SMALL
No Charge or Current Charge


@<TRIPOS>ATOM
      1 C1          -4.4070     3.8290     3.1430 c3         1 0QB       0.084800
      2 C2          -3.7250     1.5410     4.0030 c3         1 0QB       0.084800
      3 C           -4.3840     1.8620     1.5800 c          1 0QB       0.587100
      4 O           -4.7420     2.5980     0.6660 o          1 0QB      -0.606100
      5 N           -4.1950     2.3860     2.8800 n          1 0QB      -0.408800
      6 N1          -4.2690    -0.1620    -0.0440 n          1 0QB      -0.390800
      7 C3          -3.1260    -0.4760    -0.8320 c          1 0QB       0.624100
      8 O1          -3.2390    -1.0710    -1.8970 o          1 0QB      -0.617100
      9 CA          -4.1490     0.3400     1.3660 c3         1 0QB       0.029000
     10 CB          -5.6320    -0.5700    -0.4810 c3         1 0QB       0.178000
     11 CG2         -6.1780     0.3360    -1.6080 c3         1 0QB      -0.095100
     12 CG          -5.7820    -2.0840    -0.7110 ca         1 0QB      -0.100300
     13 CD1         -5.6900    -2.9480     0.4000 ca         1 0QB      -0.090500
     14 CD2         -6.0090    -2.6430    -1.9900 ca         1 0QB      -0.090500
     15 CE1         -5.8230    -4.3380     0.2420 ca         1 0QB      -0.118500
     16 CE2         -6.1420    -4.0340    -2.1470 ca         1 0QB      -0.118500
     17 CZ          -6.0510    -4.8820    -1.0320 ca         1 0QB      -0.106000
     18 C4           0.7710     0.2840    -0.7530 c          1 0QB       0.602100
     19 O2           1.0480     1.2690    -0.0860 o          1 0QB      -0.606100
     20 CA1         -0.6020     0.0620    -1.4190 c3         1 0QB      -0.110700
     21 CN          -1.7220    -0.0580    -0.3350 c3         1 0QB      -0.140400
     22 CB1         -0.8800     1.1250    -2.5290 c3         1 0QB      -0.107700
     23 CG1         -0.9810     2.5560    -2.0650 cc         1 0QB       0.331300
     24 CD21        -0.0710     3.5510    -2.3390 cd         1 0QB      -0.306000
     25 SE2         -0.5870     5.0800    -1.6410 ss         1 0QB      -0.101400
     26 CE11        -1.9780     4.1970    -1.0400 cd         1 0QB       0.712300
     27 ND1         -2.0780     2.9370    -1.3380 nc         1 0QB      -0.733000
     28 NZ          -2.9520     4.6940    -0.2780 nv         1 0QB      -1.051900
     29 C11          4.0730     0.1130    -1.0000 c3         1 0QB       0.180300
     30 C21          3.0090    -0.7950    -0.2950 c3         1 0QB       0.074700
     31 C31          3.4320    -2.2860    -0.1610 c3         1 0QB      -0.086400
     32 C7           2.3670    -3.2600     0.4430 c6         1 0QB      -0.056700
     33 C8           2.9180    -4.7130     0.4910 c6         1 0QB      -0.072900
     34 C9           1.8750    -5.7010     1.0710 c6         1 0QB      -0.072900
     35 C10          1.4020    -5.2530     2.4750 c6         1 0QB      -0.075400
     36 C5           0.8470    -3.8090     2.4400 c6         1 0QB      -0.072900
     37 C6           1.8870    -2.8200     1.8580 c6         1 0QB      -0.072900
     38 N2           1.6950    -0.7140    -0.9550 ns         1 0QB      -0.512900
     39 O11          3.5930     1.4640    -1.0210 oh         1 0QB      -0.653000
     40 N11          7.4990     1.2260    -0.1010 n          1 0QB      -0.404800
     41 C22          6.5330     0.9440    -1.0750 c          1 0QB       0.580000
     42 O21          6.5270     1.4030    -2.2110 o          1 0QB      -0.563000
     43 C32          5.4850     0.0920    -0.3540 c5         1 0QB      -0.145700
     44 C41          5.6030     0.5850     1.1200 c5         1 0QB      -0.082400
     45 C12          7.1490     0.8010     1.2750 c5         1 0QB       0.124400
     46 CM2          7.4760     1.8750     2.3440 c3         1 0QB      -0.099600
     47 CM3          7.9070    -0.4990     1.6470 c3         1 0QB      -0.099600
     48 H11         -3.6030     4.4100     2.6740 h1         1 0QB       0.043533
     49 H12         -5.3710     4.1470     2.7250 h1         1 0QB       0.043533
     50 H13         -4.4110     4.0330     4.2210 h1         1 0QB       0.043533
     51 H21         -3.6690     2.1230     4.9310 h1         1 0QB       0.043533
     52 H22         -4.4180     0.7050     4.1580 h1         1 0QB       0.043533
     53 H23         -2.7240     1.1480     3.7790 h1         1 0QB       0.043533
     54 HA2         -3.1720     0.0790     1.7840 h1         1 0QB       0.066200
     55 HA3         -4.8860    -0.1800     1.9900 h1         1 0QB       0.066200
     56 HB          -6.3040    -0.3600     0.3620 h1         1 0QB       0.049700
     57 HG21        -6.1820     1.3840    -1.2900 hc         1 0QB       0.051700
     58 HG22        -5.5650     0.2610    -2.5120 hc         1 0QB       0.051700
     59 HG23        -7.2080     0.0580    -1.8600 hc         1 0QB       0.051700
     60 HD1         -5.5140    -2.5420     1.3940 ha         1 0QB       0.116000
     61 HD2         -6.0740    -2.0120    -2.8720 ha         1 0QB       0.116000
     62 HE1         -5.7500    -4.9930     1.1070 ha         1 0QB       0.110500
     63 HE2         -6.3150    -4.4540    -3.1350 ha         1 0QB       0.110500
     64 HZ          -6.1530    -5.9580    -1.1560 ha         1 0QB       0.110000
     65 HA          -0.5530    -0.9080    -1.9290 hc         1 0QB       0.074700
     66 HN2         -1.7920     0.8560     0.2610 hc         1 0QB       0.080200
     67 HN3         -1.4350    -0.8000     0.4190 hc         1 0QB       0.080200
     68 HB1         -0.0830     1.0540    -3.2790 hc         1 0QB       0.065700
     69 HB2         -1.8010     0.8620    -3.0620 hc         1 0QB       0.065700
     70 HD21         0.8510     3.4740    -2.9010 h4         1 0QB       0.160000
     71 HNZ1        -3.2050     5.6620    -0.4240 hn         1 0QB       0.491500
     72 HNZ2        -3.7080     4.0350    -0.0930 hn         1 0QB       0.491500
     73 H121         4.1800    -0.2490    -2.0320 h1         1 0QB       0.040700
     74 H2           2.8900    -0.4090     0.7270 h1         1 0QB       0.092700
     75 H31          3.7250    -2.6480    -1.1550 hc         1 0QB       0.043700
     76 H32          4.3330    -2.3410     0.4600 hc         1 0QB       0.043700
     77 H1           1.5010    -3.2560    -0.2350 hc         1 0QB       0.049700
     78 H2'1         3.2060    -5.0390    -0.5180 hc         1 0QB       0.039700
     79 H2'2         3.8310    -4.7470     1.1010 hc         1 0QB       0.039700
     80 H3'1         1.0120    -5.7690     0.3940 hc         1 0QB       0.039450
     81 H3'2         2.3070    -6.7090     1.1280 hc         1 0QB       0.039450
     82 H4'1         0.6290    -5.9410     2.8460 hc         1 0QB       0.038200
     83 H4'2         2.2390    -5.3110     3.1840 hc         1 0QB       0.038200
     84 H5'1        -0.0700    -3.7790     1.8350 hc         1 0QB       0.039450
     85 H5'2         0.5610    -3.4950     3.4530 hc         1 0QB       0.039450
     86 H6'1         2.7480    -2.7470     2.5380 hc         1 0QB       0.039700
     87 H6'2         1.4360    -1.8200     1.8160 hc         1 0QB       0.039700
     88 HN22         1.4050    -1.4900    -1.5380 hn         1 0QB       0.308500
     89 HO1          2.6680     1.4330    -0.6630 ho         1 0QB       0.460000
     90 H321         5.8670    -0.9320    -0.4000 hc         1 0QB       0.073700
     91 H41          5.0610     1.5280     1.2620 hc         1 0QB       0.067200
     92 H42          5.1990    -0.1300     1.8460 hc         1 0QB       0.067200
     93 HM11         9.0540     1.7200    -1.4580 h1         1 0QB       0.040367
     94 HM12         8.4620     3.0770    -0.4520 h1         1 0QB       0.040367
     95 HM13         9.5050     1.8110     0.2630 h1         1 0QB       0.040367
     96 HM21         7.0200     2.8390     2.0890 hc         1 0QB       0.042533
     97 HM22         7.0950     1.5790     3.3290 hc         1 0QB       0.042533
     98 HM23         8.5560     2.0360     2.4430 hc         1 0QB       0.042533
     99 HM31         8.9880    -0.3270     1.6990 hc         1 0QB       0.042533
    100 HM32         7.5850    -0.8790     2.6250 hc         1 0QB       0.042533
    101 HM33         7.7410    -1.2960     0.9130 hc         1 0QB       0.042533
    102 CM1          8.7020     2.0060    -0.4590 c3         1 0QB       0.094300
@<TRIPOS>BOND
     1     1     5 1   
     2     1    48 1   
     3     1    49 1   
     4     1    50 1   
     5     2     5 1   
     6     2    51 1   
     7     2    52 1   
     8     2    53 1   
     9     3     4 2   
    10     3     5 1   
    11     3     9 1   
    12     6     7 1   
    13     6     9 1   
    14     6    10 1   
    15     7     8 2   
    16     7    21 1   
    17     9    54 1   
    18     9    55 1   
    19    10    11 1   
    20    10    12 1   
    21    10    56 1   
    22    11    57 1   
    23    11    58 1   
    24    11    59 1   
    25    12    13 ar  
    26    12    14 ar  
    27    13    15 ar  
    28    13    60 1   
    29    14    16 ar  
    30    14    61 1   
    31    15    17 ar  
    32    15    62 1   
    33    16    17 ar  
    34    16    63 1   
    35    17    64 1   
    36    18    19 2   
    37    18    20 1   
    38    18    38 1   
    39    20    21 1   
    40    20    22 1   
    41    20    65 1   
    42    21    66 1   
    43    21    67 1   
    44    22    23 1   
    45    22    68 1   
    46    22    69 1   
    47    23    24 2   
    48    23    27 1   
    49    24    25 1   
    50    24    70 1   
    51    25    26 1   
    52    26    27 2   
    53    26    28 1   
    54    28    71 1   
    55    28    72 1   
    56    29    30 1   
    57    29    39 1   
    58    29    43 1   
    59    29    73 1   
    60    30    31 1   
    61    30    38 1   
    62    30    74 1   
    63    31    32 1   
    64    31    75 1   
    65    31    76 1   
    66    32    33 1   
    67    32    37 1   
    68    32    77 1   
    69    33    34 1   
    70    33    78 1   
    71    33    79 1   
    72    34    35 1   
    73    34    80 1   
    74    34    81 1   
    75    35    36 1   
    76    35    82 1   
    77    35    83 1   
    78    36    37 1   
    79    36    84 1   
    80    36    85 1   
    81    37    86 1   
    82    37    87 1   
    83    38    88 1   
    84    39    89 1   
    85    40    41 1   
    86    40    45 1   
    87    40   102 1   
    88    41    42 2   
    89    41    43 1   
    90    43    44 1   
    91    43    90 1   
    92    44    45 1   
    93    44    91 1   
    94    44    92 1   
    95    45    46 1   
    96    45    47 1   
    97    46    96 1   
    98    46    97 1   
    99    46    98 1   
   100    47    99 1   
   101    47   100 1   
   102    47   101 1   
   103    93   102 1   
   104    94   102 1   
   105    95   102 1   
@<TRIPOS>SUBSTRUCTURE
     1 0QB         1 TEMP              0 ****  ****    0 ROOT
