@<TRIPOS>MOLECULE
0QB
  102   105     1     0     0
SMALL
bcc


@<TRIPOS>ATOM
      1 C1          -3.3940     4.1050     2.4850 c3         1 0QB       0.084800
      2 C2          -3.4340     1.9210     3.6540 c3         1 0QB       0.084800
      3 C           -4.0300     2.1150     1.2780 c          1 0QB       0.654100
      4 O           -4.1570     2.7510     0.2400 o          1 0QB      -0.606100
      5 N           -3.7080     2.6890     2.4530 n          1 0QB      -0.475800
      6 N1          -4.3910     0.0180    -0.0030 n          1 0QB      -0.457800
      7 C3          -3.3780    -0.6920    -0.5570 c          1 0QB       0.691100
      8 O1          -3.5500    -1.3830    -1.5520 o          1 0QB      -0.617100
      9 CA          -4.2850     0.6080     1.3060 c3         1 0QB       0.029000
     10 CB          -5.6940     0.1450    -0.6760 c3         1 0QB       0.178000
     11 CG2         -5.5930     0.6780    -2.1000 c3         1 0QB      -0.095100
     12 CG          -6.5370    -1.1080    -0.5260 ca         1 0QB      -0.100300
     13 CD1         -7.3540    -1.2400     0.5960 ca         1 0QB      -0.108500
     14 CD2         -6.5400    -2.1360    -1.4660 ca         1 0QB      -0.108500
     15 CE1         -8.1380    -2.3700     0.7890 ca         1 0QB      -0.136500
     16 CE2         -7.3270    -3.2650    -1.2820 ca         1 0QB      -0.136500
     17 CZ          -8.1250    -3.3900    -0.1520 ca         1 0QB      -0.124000
     18 C4           0.4430    -0.9420     0.0450 c          1 0QB       0.669100
     19 O2           0.4560    -0.6170     1.2230 o          1 0QB      -0.606100
     20 CA1         -0.8550    -1.0420    -0.7630 c3         1 0QB      -0.110700
     21 CN          -2.0250    -0.6120     0.1220 c3         1 0QB      -0.140400
     22 CB1         -0.7430    -0.2810    -2.1010 c3         1 0QB      -0.107700
     23 CG1         -0.4260     1.1720    -1.9810 cc         1 0QB       0.396600
     24 CD21         0.6470     1.7940    -2.5370 cd         1 0QB      -0.244400
     25 SE2          0.5650     3.4990    -2.2160 ss         1 0QB      -0.246300
     26 CE11        -0.9200     3.2220    -1.3380 cd         1 0QB       0.712300
     27 ND1         -1.2960     1.9800    -1.3060 nc         1 0QB      -0.733000
     28 NZ          -1.5720     4.2200    -0.7090 nv         1 0QB      -0.941500
     29 C11          3.5900     0.1020    -0.6560 c3         1 0QB       0.157100
     30 C21          2.9120    -1.1700    -0.1140 c3         1 0QB       0.074700
     31 C31          3.6780    -2.4400    -0.4770 c3         1 0QB      -0.086400
     32 C7           3.0900    -3.7400     0.0660 c6         1 0QB      -0.056700
     33 C8           3.8840    -4.9290    -0.4780 c6         1 0QB      -0.072900
     34 C9           3.3700    -6.2630     0.0500 c6         1 0QB      -0.072900
     35 C10          3.3600    -6.2800     1.5750 c6         1 0QB      -0.075400
     36 C5           2.5510    -5.1120     2.1260 c6         1 0QB      -0.072900
     37 C6           3.0580    -3.7740     1.5940 c6         1 0QB      -0.072900
     38 N2           1.5620    -1.2430    -0.6400 ns         1 0QB      -0.579900
     39 O11          2.8540     1.2510    -0.3170 oh         1 0QB      -0.590800
     40 N11          6.2580     2.1890     0.3670 n          1 0QB      -0.471800
     41 C22          5.6220     1.5720    -0.6440 c          1 0QB       0.722500
     42 O21          5.5770     1.9520    -1.8040 o          1 0QB      -0.638500
     43 C32          4.9960     0.2980    -0.1070 c5         1 0QB      -0.145700
     44 C41          5.0980     0.4570     1.4070 c5         1 0QB      -0.082400
     45 C12          6.2630     1.4360     1.6240 c5         1 0QB       0.124400
     46 CM2          6.0160     2.3490     2.8170 c3         1 0QB      -0.099600
     47 CM3          7.5890     0.6930     1.7900 c3         1 0QB      -0.099600
     48 H11         -2.3480     4.2950     2.2350 h1         1 0QB       0.043533
     49 H12         -4.0200     4.6530     1.7860 h1         1 0QB       0.043533
     50 H13         -3.5830     4.4890     3.4840 h1         1 0QB       0.043533
     51 H21         -3.5200     2.5770     4.5180 h1         1 0QB       0.043533
     52 H22         -4.1550     1.1180     3.7930 h1         1 0QB       0.043533
     53 H23         -2.4280     1.4950     3.6550 h1         1 0QB       0.043533
     54 HA2         -3.5260     0.0930     1.8910 h1         1 0QB       0.066200
     55 HA3         -5.2170     0.4270     1.8540 h1         1 0QB       0.066200
     56 HB          -6.2070     0.9250    -0.1110 h1         1 0QB       0.049700
     57 HG21        -4.9570     1.5620    -2.1060 hc         1 0QB       0.051700
     58 HG22        -5.1870    -0.0390    -2.8080 hc         1 0QB       0.051700
     59 HG23        -6.5870     0.9680    -2.4430 hc         1 0QB       0.051700
     60 HD1         -7.3920    -0.4420     1.3300 ha         1 0QB       0.134000
     61 HD2         -5.9260    -2.0640    -2.3520 ha         1 0QB       0.134000
     62 HE1         -8.7640    -2.4460     1.6680 ha         1 0QB       0.128500
     63 HE2         -7.3160    -4.0510    -2.0260 ha         1 0QB       0.128500
     64 HZ          -8.7380    -4.2710    -0.0110 ha         1 0QB       0.128000
     65 HA          -0.9850    -2.0980    -1.0240 hc         1 0QB       0.074700
     66 HN2         -1.8500     0.3960     0.4920 hc         1 0QB       0.080200
     67 HN3         -2.0520    -1.2630     1.0010 hc         1 0QB       0.080200
     68 HB1         -0.0030    -0.7590    -2.7450 hc         1 0QB       0.065700
     69 HB2         -1.6890    -0.3880    -2.6300 hc         1 0QB       0.065700
     70 HD21         1.4170     1.3770    -3.1680 h4         1 0QB       0.178000
     71 HNZ1        -1.4390     5.1680    -1.0200 hn         1 0QB       0.436300
     72 HNZ2        -2.5060     3.9870    -0.3980 hn         1 0QB       0.436300
     73 H121         3.6690     0.0000    -1.7490 h1         1 0QB       0.040700
     74 H2           2.8300    -1.0780     0.9700 h1         1 0QB       0.092700
     75 H31          3.7520    -2.5090    -1.5690 hc         1 0QB       0.043700
     76 H32          4.7050    -2.3490    -0.1150 hc         1 0QB       0.043700
     77 H1           2.0570    -3.8390    -0.2920 hc         1 0QB       0.049700
     78 H2'1         3.8550    -4.9190    -1.5720 hc         1 0QB       0.039700
     79 H2'2         4.9380    -4.8120    -0.1980 hc         1 0QB       0.039700
     80 H3'1         2.3540    -6.4380    -0.3220 hc         1 0QB       0.039450
     81 H3'2         3.9840    -7.0810    -0.3360 hc         1 0QB       0.039450
     82 H4'1         2.9590    -7.2280     1.9440 hc         1 0QB       0.038200
     83 H4'2         4.3900    -6.2130     1.9410 hc         1 0QB       0.038200
     84 H5'1         1.5000    -5.2360     1.8430 hc         1 0QB       0.039450
     85 H5'2         2.5780    -5.1130     3.2190 hc         1 0QB       0.039450
     86 H6'1         4.0680    -3.5850     1.9790 hc         1 0QB       0.039700
     87 H6'2         2.4270    -2.9680     1.9790 hc         1 0QB       0.039700
     88 HN22         1.4730    -1.5540    -1.5940 hn         1 0QB       0.308500
     89 HO1          2.0520     1.2760    -0.8540 ho         1 0QB       0.421000
     90 H321         5.6270    -0.5260    -0.4550 hc         1 0QB       0.073700
     91 H41          4.1790     0.8940     1.8030 hc         1 0QB       0.067200
     92 H42          5.2660    -0.4860     1.9280 hc         1 0QB       0.067200
     93 HM11         7.0460     3.6640    -0.8560 h1         1 0QB       0.040367
     94 HM12         6.6380     4.2130     0.7710 h1         1 0QB       0.040367
     95 HM13         8.0780     3.2230     0.5060 h1         1 0QB       0.040367
     96 HM21         5.0990     2.9260     2.6900 hc         1 0QB       0.042533
     97 HM22         5.9150     1.7500     3.7230 hc         1 0QB       0.042533
     98 HM23         6.8400     3.0470     2.9770 hc         1 0QB       0.042533
     99 HM31         8.4360     1.3800     1.8130 hc         1 0QB       0.042533
    100 HM32         7.5930     0.1350     2.7280 hc         1 0QB       0.042533
    101 HM33         7.7510    -0.0180     0.9780 hc         1 0QB       0.042533
    102 CM1          7.0450     3.3820     0.1930 c3         1 0QB       0.094300
@<TRIPOS>BOND
     1     1     5 1   
     2     1    48 1   
     3     1    49 1   
     4     1    50 1   
     5     2     5 1   
     6     2    51 1   
     7     2    52 1   
     8     2    53 1   
     9     3     4 2   
    10     3     5 1   
    11     3     9 1   
    12     6     7 1   
    13     6     9 1   
    14     6    10 1   
    15     7     8 2   
    16     7    21 1   
    17     9    54 1   
    18     9    55 1   
    19    10    11 1   
    20    10    12 1   
    21    10    56 1   
    22    11    57 1   
    23    11    58 1   
    24    11    59 1   
    25    12    13 ar  
    26    12    14 ar  
    27    13    15 ar  
    28    13    60 1   
    29    14    16 ar  
    30    14    61 1   
    31    15    17 ar  
    32    15    62 1   
    33    16    17 ar  
    34    16    63 1   
    35    17    64 1   
    36    18    19 2   
    37    18    20 1   
    38    18    38 1   
    39    20    21 1   
    40    20    22 1   
    41    20    65 1   
    42    21    66 1   
    43    21    67 1   
    44    22    23 1   
    45    22    68 1   
    46    22    69 1   
    47    23    24 2   
    48    23    27 1   
    49    24    25 1   
    50    24    70 1   
    51    25    26 1   
    52    26    27 2   
    53    26    28 1   
    54    28    71 1   
    55    28    72 1   
    56    29    30 1   
    57    29    39 1   
    58    29    43 1   
    59    29    73 1   
    60    30    31 1   
    61    30    38 1   
    62    30    74 1   
    63    31    32 1   
    64    31    75 1   
    65    31    76 1   
    66    32    33 1   
    67    32    37 1   
    68    32    77 1   
    69    33    34 1   
    70    33    78 1   
    71    33    79 1   
    72    34    35 1   
    73    34    80 1   
    74    34    81 1   
    75    35    36 1   
    76    35    82 1   
    77    35    83 1   
    78    36    37 1   
    79    36    84 1   
    80    36    85 1   
    81    37    86 1   
    82    37    87 1   
    83    38    88 1   
    84    39    89 1   
    85    40    41 1   
    86    40    45 1   
    87    40   102 1   
    88    41    42 2   
    89    41    43 1   
    90    43    44 1   
    91    43    90 1   
    92    44    45 1   
    93    44    91 1   
    94    44    92 1   
    95    45    46 1   
    96    45    47 1   
    97    46    96 1   
    98    46    97 1   
    99    46    98 1   
   100    47    99 1   
   101    47   100 1   
   102    47   101 1   
   103    93   102 1   
   104    94   102 1   
   105    95   102 1   
@<TRIPOS>SUBSTRUCTURE
     1 0QB         1 TEMP              0 ****  ****    0 ROOT
