@<TRIPOS>MOLECULE
0QE
    5     4     1     0     0
SMALL
abcg2


@<TRIPOS>ATOM
      1 C1           1.2200     0.0600    -0.0130 c3         1 0QE       0.111900
      2 CL1         -0.5710     0.0740    -0.0450 cl         1 0QE      -0.283000
      3 H            1.5500     0.0340     1.0210 h1         1 0QE       0.056700
      4 HA           1.5710    -0.8200    -0.5410 h1         1 0QE       0.056700
      5 HB           1.5850     0.9590    -0.4990 h1         1 0QE       0.056700
@<TRIPOS>BOND
     1     1     2 1   
     2     1     3 1   
     3     1     4 1   
     4     1     5 1   
@<TRIPOS>SUBSTRUCTURE
     1 0QE         1 TEMP              0 ****  ****    0 ROOT
