@<TRIPOS>MOLECULE
0QE
    5     4     1     0     0
SMALL
No Charge or Current Charge


@<TRIPOS>ATOM
      1 C1           1.2240     0.0600    -0.0130 c3         1 0QE       0.111900
      2 Cl1         -0.5940     0.0740    -0.0450 cl         1 0QE      -0.283000
      3 H            1.5560     0.0330     1.0330 h1         1 0QE       0.056700
      4 HA           1.5780    -0.8300    -0.5470 h1         1 0QE       0.056700
      5 HB           1.5910     0.9690    -0.5050 h1         1 0QE       0.056700
@<TRIPOS>BOND
     1     1     2 1   
     2     1     3 1   
     3     1     4 1   
     4     1     5 1   
@<TRIPOS>SUBSTRUCTURE
     1 0QE         1 TEMP              0 ****  ****    0 ROOT
