@<TRIPOS>MOLECULE
0QF
   96    98     1     0     0
SMALL
No Charge or Current Charge


@<TRIPOS>ATOM
      1 O1           0.7220    24.1840    19.9590 os         1 0QF      -0.436000
      2 C2          -0.0970    25.0010    19.0860 c6         1 0QF       0.127100
      3 C3           0.7730    25.7900    18.0510 c6         1 0QF       0.170800
      4 N4           2.2460    25.6200    18.2570 n3         1 0QF      -0.752500
      5 C5           2.5780    24.1590    18.2880 c6         1 0QF       0.170800
      6 C6           1.6490    23.3300    19.2430 c6         1 0QF       0.127100
      7 S            2.9280    26.5460    19.5180 s6         1 0QF       1.292200
      8 O1S          3.3960    25.6870    20.6060 o          1 0QF      -0.558500
      9 O2S          2.1030    27.7330    19.7350 o          1 0QF      -0.558500
     10 N            4.1890    26.9550    18.5610 n7         1 0QF      -0.910300
     11 CA           4.5080    28.3960    18.3210 c3         1 0QF       0.161500
     12 C            3.4220    29.1540    17.4800 c          1 0QF       0.561100
     13 O            2.9590    28.7130    16.4370 o          1 0QF      -0.587100
     14 CB           5.8830    28.5060    17.6150 c3         1 0QF      -0.030100
     15 CG           7.0520    28.2530    18.5600 ca         1 0QF      -0.075300
     16 CD1          7.5710    29.3110    19.3360 ca         1 0QF      -0.106000
     17 CD2          7.6200    26.9670    18.6710 ca         1 0QF      -0.106000
     18 CE1          8.6480    29.0880    20.2100 ca         1 0QF      -0.112000
     19 CE2          8.6970    26.7430    19.5460 ca         1 0QF      -0.112000
     20 CZ           9.2130    27.8030    20.3150 ca         1 0QF      -0.113000
     21 N1           3.0300    30.3790    17.9800 ns         1 0QF      -0.493900
     22 CA1          2.0440    31.2690    17.3360 c3         1 0QF       0.142700
     23 C1           2.7320    32.2720    16.3430 c          1 0QF       0.599100
     24 O2           2.1500    33.2360    15.8560 o          1 0QF      -0.579100
     25 S1           1.0170    32.1530    18.6020 ss         1 0QF      -0.386000
     26 C11          0.2440    30.7080    19.4580 c3         1 0QF       0.056600
     27 C21         -0.8500    31.1830    20.4270 c3         1 0QF      -0.079100
     28 C12          4.9330    32.8650    15.2250 c3         1 0QF       0.119700
     29 N2           4.0540    32.0130    16.0380 ns         1 0QF      -0.484900
     30 C22          4.9090    32.4860    13.7030 c3         1 0QF       0.159300
     31 O21          5.4470    31.1580    13.5210 oh         1 0QF      -0.664000
     32 C31          3.4890    32.5800    13.0390 c3         1 0QF       0.145300
     33 O3           2.9010    33.8640    13.3040 oh         1 0QF      -0.666000
     34 C4           3.5120    32.3480    11.5000 c3         1 0QF      -0.106400
     35 C51          2.1290    32.3930    10.7860 c3         1 0QF      -0.060700
     36 C61          1.1420    31.3250    11.3170 c3         1 0QF      -0.090600
     37 C7           2.2950    32.2680     9.2540 c3         1 0QF      -0.090600
     38 C16          6.3690    32.8690    15.8250 c3         1 0QF      -0.088400
     39 C14          6.4920    33.2070    17.3480 c6         1 0QF      -0.055700
     40 C8           5.9170    34.6100    17.6990 c6         1 0QF      -0.076900
     41 C13          7.9720    33.0990    17.8150 c6         1 0QF      -0.076900
     42 C9           6.0720    34.9290    19.2080 c6         1 0QF      -0.073400
     43 C10          8.1230    33.4180    19.3230 c6         1 0QF      -0.073400
     44 C15          7.5470    34.8140    19.6600 c6         1 0QF      -0.076400
     45 H21         -0.8170    24.3590    18.5570 h1         1 0QF       0.057700
     46 H22         -0.6700    25.7090    19.7030 h1         1 0QF       0.057700
     47 H31          0.5080    25.4150    17.0510 h1         1 0QF       0.070950
     48 H32          0.4800    26.8510    18.0500 h1         1 0QF       0.070950
     49 H51          2.4680    23.7380    17.2780 h1         1 0QF       0.070950
     50 H52          3.6300    23.9940    18.5650 h1         1 0QF       0.070950
     51 H61          2.2620    22.7810    19.9720 h1         1 0QF       0.057700
     52 H62          1.0800    22.5910    18.6590 h1         1 0QF       0.057700
     53 H            3.7660    26.5550    17.7210 hn         1 0QF       0.505000
     54 HA           4.5950    28.9250    19.2810 h1         1 0QF       0.095700
     55 HB2          5.9150    27.8190    16.7610 hc         1 0QF       0.064700
     56 HB3          5.9860    29.5120    17.1890 hc         1 0QF       0.064700
     57 HD1          7.1390    30.3080    19.2640 ha         1 0QF       0.115000
     58 HD2          7.2230    26.1400    18.0840 ha         1 0QF       0.115000
     59 HE1          9.0430    29.9100    20.8070 ha         1 0QF       0.115500
     60 HE2          9.1300    25.7460    19.6290 ha         1 0QF       0.115500
     61 HZ          10.0470    27.6290    20.9920 ha         1 0QF       0.115000
     62 H1           3.4190    30.6670    18.8720 hn         1 0QF       0.336500
     63 HA1          1.3650    30.6450    16.7430 h2         1 0QF       0.108700
     64 H11         -0.1930    30.0340    18.7100 h1         1 0QF       0.063200
     65 H12          1.0160    30.1590    20.0120 h1         1 0QF       0.063200
     66 H211        -1.3070    30.3260    20.9360 hc         1 0QF       0.045367
     67 H221        -0.4280    31.8510    21.1880 hc         1 0QF       0.045367
     68 H23         -1.6360    31.7230    19.8870 hc         1 0QF       0.045367
     69 H13          4.5650    33.8970    15.3000 h1         1 0QF       0.098700
     70 HN1          4.4480    31.1710    16.4320 hn         1 0QF       0.327500
     71 H2           5.5560    33.2080    13.1860 h1         1 0QF       0.048700
     72 HO2          5.6410    31.0500    12.5660 ho         1 0QF       0.447000
     73 H3           2.8670    31.7940    13.4890 h1         1 0QF       0.053700
     74 HO3          2.5240    33.8040    14.2190 ho         1 0QF       0.455000
     75 H41          4.1680    33.1020    11.0470 hc         1 0QF       0.044700
     76 H42          3.9700    31.3740    11.2900 hc         1 0QF       0.044700
     77 H5           1.6790    33.3770    10.9740 hc         1 0QF       0.049700
     78 H611         0.1980    31.3610    10.7610 hc         1 0QF       0.034367
     79 H621         1.5630    30.3170    11.2120 hc         1 0QF       0.034367
     80 H63          0.9070    31.4930    12.3740 hc         1 0QF       0.034367
     81 H71          1.3260    32.3580     8.7490 hc         1 0QF       0.034367
     82 H72          2.9490    33.0600     8.8680 hc         1 0QF       0.034367
     83 H73          2.7330    31.2990     8.9860 hc         1 0QF       0.034367
     84 H7'1         6.8180    31.8830    15.6540 hc         1 0QF       0.051200
     85 H7'2         6.9770    33.5760    15.2470 hc         1 0QF       0.051200
     86 H8           5.9140    32.4480    17.8940 hc         1 0QF       0.036700
     87 H2'1         6.4250    35.3830    17.1060 hc         1 0QF       0.044200
     88 H2'2         4.8520    34.6650    17.4370 hc         1 0QF       0.044200
     89 H6'1         8.3560    32.0890    17.6170 hc         1 0QF       0.044200
     90 H6'2         8.5990    33.7880    17.2320 hc         1 0QF       0.044200
     91 H3'1         5.6970    35.9400    19.4150 hc         1 0QF       0.036700
     92 H3'2         5.4500    34.2400    19.7950 hc         1 0QF       0.036700
     93 H5'1         7.6080    32.6520    19.9200 hc         1 0QF       0.036700
     94 H5'2         9.1840    33.3730    19.6080 hc         1 0QF       0.036700
     95 H4'1         8.1490    35.5910    19.1690 hc         1 0QF       0.040200
     96 H4'2         7.6220    34.9980    20.7410 hc         1 0QF       0.040200
@<TRIPOS>BOND
     1     1     2 1   
     2     1     6 1   
     3     2     3 1   
     4     2    45 1   
     5     2    46 1   
     6     3     4 1   
     7     3    47 1   
     8     3    48 1   
     9     4     5 1   
    10     4     7 1   
    11     5     6 1   
    12     5    49 1   
    13     5    50 1   
    14     6    51 1   
    15     6    52 1   
    16     7     8 2   
    17     7     9 2   
    18     7    10 1   
    19    10    11 1   
    20    10    53 1   
    21    11    12 1   
    22    11    14 1   
    23    11    54 1   
    24    12    13 2   
    25    12    21 1   
    26    14    15 1   
    27    14    55 1   
    28    14    56 1   
    29    15    16 ar  
    30    15    17 ar  
    31    16    18 ar  
    32    16    57 1   
    33    17    19 ar  
    34    17    58 1   
    35    18    20 ar  
    36    18    59 1   
    37    19    20 ar  
    38    19    60 1   
    39    20    61 1   
    40    21    22 1   
    41    21    62 1   
    42    22    23 1   
    43    22    25 1   
    44    22    63 1   
    45    23    24 2   
    46    23    29 1   
    47    25    26 1   
    48    26    27 1   
    49    26    64 1   
    50    26    65 1   
    51    27    66 1   
    52    27    67 1   
    53    27    68 1   
    54    28    29 1   
    55    28    30 1   
    56    28    38 1   
    57    28    69 1   
    58    29    70 1   
    59    30    31 1   
    60    30    32 1   
    61    30    71 1   
    62    31    72 1   
    63    32    33 1   
    64    32    34 1   
    65    32    73 1   
    66    33    74 1   
    67    34    35 1   
    68    34    75 1   
    69    34    76 1   
    70    35    36 1   
    71    35    37 1   
    72    35    77 1   
    73    36    78 1   
    74    36    79 1   
    75    36    80 1   
    76    37    81 1   
    77    37    82 1   
    78    37    83 1   
    79    38    39 1   
    80    38    84 1   
    81    38    85 1   
    82    39    40 1   
    83    39    41 1   
    84    39    86 1   
    85    40    42 1   
    86    40    87 1   
    87    40    88 1   
    88    41    43 1   
    89    41    89 1   
    90    41    90 1   
    91    42    44 1   
    92    42    91 1   
    93    42    92 1   
    94    43    44 1   
    95    43    93 1   
    96    43    94 1   
    97    44    95 1   
    98    44    96 1   
@<TRIPOS>SUBSTRUCTURE
     1 0QF         1 TEMP              0 ****  ****    0 ROOT
