@<TRIPOS>MOLECULE
0QF
   96    98     1     0     0
SMALL
bcc


@<TRIPOS>ATOM
      1 O1           2.4050    25.7280    22.9050 os         1 0QF      -0.389600
      2 C2           2.0170    24.4770    22.3950 c6         1 0QF       0.103900
      3 C3           1.7880    24.5780    20.8850 c6         1 0QF       0.170800
      4 N4           2.8150    25.4440    20.2870 n3         1 0QF      -0.752500
      5 C5           4.0250    25.5480    21.0970 c6         1 0QF       0.170800
      6 C6           3.7140    26.0770    22.4990 c6         1 0QF       0.103900
      7 S            2.3330    26.7910    19.4740 s6         1 0QF       1.433800
      8 O1S          2.2910    27.9910    20.2970 o          1 0QF      -0.629300
      9 O2S          1.1200    26.4280    18.7590 o          1 0QF      -0.629300
     10 N            3.6260    26.9710    18.4780 n7         1 0QF      -0.855100
     11 CA           4.1170    28.2780    18.0910 c3         1 0QF       0.161500
     12 C            3.3450    28.8300    16.8940 c          1 0QF       0.628100
     13 O            3.1070    28.1360    15.9220 o          1 0QF      -0.587100
     14 CB           5.6050    28.1660    17.7380 c3         1 0QF      -0.030100
     15 CG           6.4070    27.6420    18.8950 ca         1 0QF      -0.075300
     16 CD1          6.5400    28.3910    20.0640 ca         1 0QF      -0.124000
     17 CD2          6.9960    26.3830    18.8420 ca         1 0QF      -0.124000
     18 CE1          7.2410    27.8920    21.1510 ca         1 0QF      -0.130000
     19 CE2          7.7020    25.8800    19.9280 ca         1 0QF      -0.130000
     20 CZ           7.8240    26.6320    21.0880 ca         1 0QF      -0.131000
     21 N1           2.9920    30.1280    17.0010 ns         1 0QF      -0.560900
     22 CA1          2.1950    30.8190    16.0260 c3         1 0QF       0.094800
     23 C1           2.8470    32.1600    15.6660 c          1 0QF       0.666100
     24 O2           2.3510    33.2140    16.0260 o          1 0QF      -0.579100
     25 S1           0.5190    31.1790    16.6290 ss         1 0QF      -0.290200
     26 C11         -0.0900    29.4800    16.8510 c3         1 0QF       0.008700
     27 C21         -1.5360    29.5250    17.3160 c3         1 0QF      -0.079100
     28 C12          4.8880    33.1400    14.6820 c3         1 0QF       0.119700
     29 N2           3.9840    32.0410    14.9710 ns         1 0QF      -0.551900
     30 C22          4.8610    33.4870    13.1880 c3         1 0QF       0.136100
     31 O21          5.1120    32.2970    12.4750 oh         1 0QF      -0.601800
     32 C31          3.5390    34.1460    12.7710 c3         1 0QF       0.122100
     33 O3           3.5370    35.4190    13.3910 oh         1 0QF      -0.603800
     34 C4           3.4020    34.2570    11.2540 c3         1 0QF      -0.106400
     35 C51          2.1790    35.0390    10.7690 c3         1 0QF      -0.060700
     36 C61          0.8670    34.4410    11.2700 c3         1 0QF      -0.090600
     37 C7           2.1810    35.1030     9.2440 c3         1 0QF      -0.090600
     38 C16          6.3090    32.8170    15.1540 c3         1 0QF      -0.088400
     39 C14          6.4270    32.2630    16.5730 c6         1 0QF      -0.055700
     40 C8           5.7970    33.1510    17.6440 c6         1 0QF      -0.076900
     41 C13          7.8950    32.0070    16.9170 c6         1 0QF      -0.076900
     42 C9           5.9250    32.5150    19.0260 c6         1 0QF      -0.073400
     43 C10          8.0630    31.3960    18.3050 c6         1 0QF      -0.073400
     44 C15          7.3820    32.2360    19.3790 c6         1 0QF      -0.076400
     45 H21          2.7580    23.7030    22.6270 h1         1 0QF       0.057700
     46 H22          1.0870    24.1870    22.8850 h1         1 0QF       0.057700
     47 H31          1.8350    23.5860    20.4300 h1         1 0QF       0.070950
     48 H32          0.7960    24.9780    20.6870 h1         1 0QF       0.070950
     49 H51          4.4580    24.5470    21.1400 h1         1 0QF       0.070950
     50 H52          4.7630    26.1770    20.6010 h1         1 0QF       0.070950
     51 H61          3.7740    27.1650    22.5250 h1         1 0QF       0.057700
     52 H62          4.4630    25.6830    23.1990 h1         1 0QF       0.057700
     53 H            3.6970    26.2490    17.7690 hn         1 0QF       0.449800
     54 HA           4.0160    28.9420    18.9490 h1         1 0QF       0.095700
     55 HB2          5.7240    27.5130    16.8700 hc         1 0QF       0.064700
     56 HB3          5.9580    29.1570    17.4400 hc         1 0QF       0.064700
     57 HD1          6.0880    29.3750    20.1270 ha         1 0QF       0.133000
     58 HD2          6.9000    25.7850    17.9430 ha         1 0QF       0.133000
     59 HE1          7.3330    28.4880    22.0510 ha         1 0QF       0.133500
     60 HE2          8.1530    24.8980    19.8680 ha         1 0QF       0.133500
     61 HZ           8.3700    26.2410    21.9360 ha         1 0QF       0.133000
     62 H1           3.1710    30.6080    17.8710 hn         1 0QF       0.336500
     63 HA1          2.1350    30.1860    15.1380 h2         1 0QF       0.108700
     64 H11         -0.0080    28.9370    15.9080 h1         1 0QF       0.063200
     65 H12          0.5240    28.9680    17.5920 h1         1 0QF       0.063200
     66 H211        -1.9060    28.5110    17.4630 hc         1 0QF       0.045367
     67 H221        -1.6360    30.0560    18.2620 hc         1 0QF       0.045367
     68 H23         -2.1790    30.0120    16.5830 hc         1 0QF       0.045367
     69 H13          4.5220    34.0080    15.2300 h1         1 0QF       0.098700
     70 HN1          4.2880    31.1150    14.7100 hn         1 0QF       0.327500
     71 H2           5.6570    34.2260    13.0100 h1         1 0QF       0.048700
     72 HO2          5.4290    32.5190    11.5960 ho         1 0QF       0.408000
     73 H3           2.7100    33.5310    13.1470 h1         1 0QF       0.053700
     74 HO3          2.6270    35.7100    13.4990 ho         1 0QF       0.416000
     75 H41          4.3040    34.7260    10.8420 hc         1 0QF       0.044700
     76 H42          3.3470    33.2490    10.8290 hc         1 0QF       0.044700
     77 H5           2.2520    36.0670    11.1410 hc         1 0QF       0.049700
     78 H611         0.0130    34.9810    10.8580 hc         1 0QF       0.034367
     79 H621         0.7740    33.3950    10.9660 hc         1 0QF       0.034367
     80 H63          0.7740    34.4760    12.3570 hc         1 0QF       0.034367
     81 H71          1.3490    35.7030     8.8720 hc         1 0QF       0.034367
     82 H72          3.1040    35.5420     8.8640 hc         1 0QF       0.034367
     83 H73          2.0860    34.1030     8.8140 hc         1 0QF       0.034367
     84 H7'1         6.7680    32.1010    14.4660 hc         1 0QF       0.051200
     85 H7'2         6.8980    33.7370    15.0730 hc         1 0QF       0.051200
     86 H8           5.9100    31.2950    16.6050 hc         1 0QF       0.036700
     87 H2'1         6.2930    34.1290    17.6400 hc         1 0QF       0.044200
     88 H2'2         4.7420    33.3410    17.4320 hc         1 0QF       0.044200
     89 H6'1         8.3450    31.3510    16.1650 hc         1 0QF       0.044200
     90 H6'2         8.4440    32.9560    16.8670 hc         1 0QF       0.044200
     91 H3'1         5.4700    33.1590    19.7820 hc         1 0QF       0.036700
     92 H3'2         5.3550    31.5780    19.0360 hc         1 0QF       0.036700
     93 H5'1         7.6340    30.3890    18.3080 hc         1 0QF       0.036700
     94 H5'2         9.1240    31.2750    18.5360 hc         1 0QF       0.036700
     95 H4'1         7.9110    33.1890    19.4850 hc         1 0QF       0.040200
     96 H4'2         7.4480    31.7340    20.3480 hc         1 0QF       0.040200
@<TRIPOS>BOND
     1     1     2 1   
     2     1     6 1   
     3     2     3 1   
     4     2    45 1   
     5     2    46 1   
     6     3     4 1   
     7     3    47 1   
     8     3    48 1   
     9     4     5 1   
    10     4     7 1   
    11     5     6 1   
    12     5    49 1   
    13     5    50 1   
    14     6    51 1   
    15     6    52 1   
    16     7     8 2   
    17     7     9 2   
    18     7    10 1   
    19    10    11 1   
    20    10    53 1   
    21    11    12 1   
    22    11    14 1   
    23    11    54 1   
    24    12    13 2   
    25    12    21 1   
    26    14    15 1   
    27    14    55 1   
    28    14    56 1   
    29    15    16 ar  
    30    15    17 ar  
    31    16    18 ar  
    32    16    57 1   
    33    17    19 ar  
    34    17    58 1   
    35    18    20 ar  
    36    18    59 1   
    37    19    20 ar  
    38    19    60 1   
    39    20    61 1   
    40    21    22 1   
    41    21    62 1   
    42    22    23 1   
    43    22    25 1   
    44    22    63 1   
    45    23    24 2   
    46    23    29 1   
    47    25    26 1   
    48    26    27 1   
    49    26    64 1   
    50    26    65 1   
    51    27    66 1   
    52    27    67 1   
    53    27    68 1   
    54    28    29 1   
    55    28    30 1   
    56    28    38 1   
    57    28    69 1   
    58    29    70 1   
    59    30    31 1   
    60    30    32 1   
    61    30    71 1   
    62    31    72 1   
    63    32    33 1   
    64    32    34 1   
    65    32    73 1   
    66    33    74 1   
    67    34    35 1   
    68    34    75 1   
    69    34    76 1   
    70    35    36 1   
    71    35    37 1   
    72    35    77 1   
    73    36    78 1   
    74    36    79 1   
    75    36    80 1   
    76    37    81 1   
    77    37    82 1   
    78    37    83 1   
    79    38    39 1   
    80    38    84 1   
    81    38    85 1   
    82    39    40 1   
    83    39    41 1   
    84    39    86 1   
    85    40    42 1   
    86    40    87 1   
    87    40    88 1   
    88    41    43 1   
    89    41    89 1   
    90    41    90 1   
    91    42    44 1   
    92    42    91 1   
    93    42    92 1   
    94    43    44 1   
    95    43    93 1   
    96    43    94 1   
    97    44    95 1   
    98    44    96 1   
@<TRIPOS>SUBSTRUCTURE
     1 0QF         1 TEMP              0 ****  ****    0 ROOT
