@<TRIPOS>MOLECULE
0QG
   54    54     1     0     0
SMALL
bcc


@<TRIPOS>ATOM
      1 N           -6.2220    19.2390     7.3560 n8         1 0QG      -0.888800
      2 CA          -6.8920    19.8800     6.2370 c3         1 0QG       0.099500
      3 CB          -6.6060    21.3990     6.0180 c3         1 0QG      -0.071000
      4 CG1         -5.1130    21.7250     5.9820 c3         1 0QG      -0.088100
      5 CG2         -7.2440    22.1650     7.1810 c3         1 0QG      -0.088100
      6 CG3         -7.2570    21.8660     4.7140 c3         1 0QG      -0.088100
      7 C           -6.5480    19.0540     5.0030 c          1 0QG       0.682100
      8 O           -5.3760    18.8640     4.6960 o          1 0QG      -0.597100
      9 N1          -7.5600    18.5390     4.2780 n          1 0QG      -0.468800
     10 CA1         -7.2840    17.7250     3.0970 c5         1 0QG       0.024700
     11 C1          -7.0500    18.6440     1.8950 c          1 0QG       0.644100
     12 O1          -7.9800    19.2480     1.3690 o          1 0QG      -0.664100
     13 CB1         -8.5460    16.8760     2.9540 c5         1 0QG      -0.072400
     14 CG          -9.6590    17.7480     3.5250 c5         1 0QG      -0.088400
     15 CD          -8.9790    18.5390     4.6410 c5         1 0QG       0.113000
     16 N2          -5.7830    18.7290     1.4930 ns         1 0QG      -0.512900
     17 CA2         -5.3020    19.5490     0.4020 c3         1 0QG      -0.035300
     18 C2          -3.9100    19.0150    -0.0250 c          1 0QG       0.927600
     19 O2          -3.3180    18.2820     0.7940 o          1 0QG      -0.828800
     20 CB2         -5.2620    21.0430     0.8010 c3         1 0QG      -0.048700
     21 CG11        -5.1330    21.9690    -0.4090 c3         1 0QG      -0.068400
     22 CG21        -4.1970    21.3280     1.8570 c3         1 0QG      -0.081100
     23 CD1         -5.4310    23.4280    -0.0850 c3         1 0QG      -0.084100
     24 OXT         -3.4990    19.3800    -1.1400 o          1 0QG      -0.828800
     25 H           -5.2180    19.3040     7.2510 hn         1 0QG       0.347800
     26 H2          -6.4560    19.7090     8.2210 hn         1 0QG       0.347800
     27 HA          -7.9640    19.8090     6.4380 h1         1 0QG       0.055700
     28 HG11        -4.6060    21.2600     5.1370 hc         1 0QG       0.036922
     29 HG12        -4.9770    22.8050     5.8960 hc         1 0QG       0.036922
     30 HG13        -4.6060    21.4110     6.8960 hc         1 0QG       0.036922
     31 HG21        -6.8060    21.8870     8.1420 hc         1 0QG       0.036922
     32 HG22        -7.0930    23.2390     7.0590 hc         1 0QG       0.036922
     33 HG23        -8.3190    21.9840     7.2370 hc         1 0QG       0.036922
     34 HG31        -8.3250    21.6390     4.6910 hc         1 0QG       0.036922
     35 HG32        -7.1530    22.9480     4.6080 hc         1 0QG       0.036922
     36 HG33        -6.7960    21.4120     3.8350 hc         1 0QG       0.036922
     37 HA1         -6.4070    17.1000     3.2750 h1         1 0QG       0.084700
     38 HB2         -8.7300    16.5640     1.9270 hc         1 0QG       0.050700
     39 HB3         -8.4280    15.9720     3.5530 hc         1 0QG       0.050700
     40 HG2        -10.0490    18.4190     2.7630 hc         1 0QG       0.055200
     41 HG3        -10.4930    17.1620     3.9090 hc         1 0QG       0.055200
     42 HD2         -9.1200    18.0520     5.6090 h1         1 0QG       0.034700
     43 HD3         -9.3740    19.5520     4.7160 h1         1 0QG       0.034700
     44 H1          -5.0630    18.2070     1.9710 hn         1 0QG       0.352500
     45 HA2         -5.9900    19.4460    -0.4420 h1         1 0QG       0.053700
     46 HB          -6.2390    21.2570     1.2490 hc         1 0QG       0.026700
     47 HG14        -4.1340    21.8830    -0.8390 hc         1 0QG       0.052200
     48 HG15        -5.8280    21.6340    -1.1860 hc         1 0QG       0.052200
     49 HG24        -3.1900    21.2650     1.4380 hc         1 0QG       0.027367
     50 HG25        -4.3160    22.3280     2.2730 hc         1 0QG       0.027367
     51 HG26        -4.2570    20.6280     2.6910 hc         1 0QG       0.027367
     52 HD11        -4.7060    23.8520     0.6100 hc         1 0QG       0.014700
     53 HD12        -5.4100    24.0410    -0.9870 hc         1 0QG       0.014700
     54 HD13        -6.4210    23.5390     0.3630 hc         1 0QG       0.014700
@<TRIPOS>BOND
     1     1     2 1   
     2     1    25 1   
     3     1    26 1   
     4     2     3 1   
     5     2     7 1   
     6     2    27 1   
     7     3     4 1   
     8     3     5 1   
     9     3     6 1   
    10     4    28 1   
    11     4    29 1   
    12     4    30 1   
    13     5    31 1   
    14     5    32 1   
    15     5    33 1   
    16     6    34 1   
    17     6    35 1   
    18     6    36 1   
    19     7     8 2   
    20     7     9 1   
    21     9    10 1   
    22     9    15 1   
    23    10    11 1   
    24    10    13 1   
    25    10    37 1   
    26    11    12 2   
    27    11    16 1   
    28    13    14 1   
    29    13    38 1   
    30    13    39 1   
    31    14    15 1   
    32    14    40 1   
    33    14    41 1   
    34    15    42 1   
    35    15    43 1   
    36    16    17 1   
    37    16    44 1   
    38    17    18 1   
    39    17    20 1   
    40    17    45 1   
    41    18    19 1   
    42    18    24 1   
    43    20    21 1   
    44    20    22 1   
    45    20    46 1   
    46    21    23 1   
    47    21    47 1   
    48    21    48 1   
    49    22    49 1   
    50    22    50 1   
    51    22    51 1   
    52    23    52 1   
    53    23    53 1   
    54    23    54 1   
@<TRIPOS>SUBSTRUCTURE
     1 0QG         1 TEMP              0 ****  ****    0 ROOT
