@<TRIPOS>MOLECULE
0QH
   73    74     1     0     0
SMALL
No Charge or Current Charge


@<TRIPOS>ATOM
      1 C1          -3.7960     2.5310    -0.6950 c          1 0QH       0.542100
      2 C2          -4.9590     3.0030    -1.6140 c3         1 0QH       0.244000
      3 O           -3.1740     3.2840     0.0460 o          1 0QH      -0.567100
      4 F1          -4.6830     2.7660    -2.9180 f          1 0QH      -0.092000
      5 F2          -6.1110     2.3540    -1.3190 f          1 0QH      -0.092000
      6 F3          -5.2020     4.3300    -1.4880 f          1 0QH      -0.092000
      7 N           -3.4940     1.1820    -0.7710 ns         1 0QH      -0.473900
      8 CA          -2.4450     0.4890     0.0150 c3         1 0QH       0.054700
      9 C           -1.6770    -0.5120    -0.8920 c          1 0QH       0.585100
     10 O1          -2.0880    -0.8640    -1.9910 o          1 0QH      -0.540100
     11 CB          -3.0660    -0.2440     1.2410 c3         1 0QH      -0.089400
     12 CG          -3.6620     0.6630     2.3530 c3         1 0QH      -0.059700
     13 CD1         -4.4430    -0.1820     3.3860 c3         1 0QH      -0.095100
     14 CD2         -2.5870     1.5240     3.0590 c3         1 0QH      -0.095100
     15 N1           0.3840    -2.0180    -0.9730 n4         1 0QH      -0.293200
     16 N2          -0.4870    -0.9870    -0.3560 ns         1 0QH      -0.399300
     17 C3          -0.3790    -3.3500    -1.1440 c3         1 0QH       0.180900
     18 C11         -1.0950    -3.8700     0.1000 ca         1 0QH      -0.157300
     19 C21         -2.4650    -3.6040     0.2870 ca         1 0QH      -0.081500
     20 C31         -3.1260    -4.0620     1.4400 ca         1 0QH      -0.103000
     21 C4          -2.4240    -4.8000     2.4070 ca         1 0QH      -0.061000
     22 C5          -1.0620    -5.0860     2.2160 ca         1 0QH      -0.103000
     23 C6          -0.4000    -4.6270     1.0640 ca         1 0QH      -0.081500
     24 C1M          0.8890    -1.5280    -2.3420 c3         1 0QH       0.057900
     25 CA2          1.6010    -2.2530    -0.0460 c3         1 0QH      -0.015400
     26 CA1          2.4640    -1.0390     0.3280 c          1 0QH       0.586100
     27 O2           2.0790    -0.2260     1.1620 o          1 0QH      -0.580100
     28 C12          4.7260    -0.0040    -0.3380 ca         1 0QH      -0.090000
     29 N11          3.6690    -0.9600    -0.3600 ns         1 0QH      -0.105000
     30 C22          5.8540    -0.2570    -1.1410 ca         1 0QH      -0.109000
     31 C32          6.9320     0.6440    -1.1710 ca         1 0QH      -0.087500
     32 C41          6.9040     1.8190    -0.3970 ca         1 0QH      -0.049300
     33 C51          5.7750     2.0760     0.4070 ca         1 0QH      -0.087500
     34 C61          4.6950     1.1760     0.4380 ca         1 0QH      -0.109000
     35 C7           8.0820     2.7950    -0.4350 c3         1 0QH      -0.022400
     36 C8           7.6600     4.1720    -0.9940 c3         1 0QH      -0.087100
     37 C9           8.7560     2.9240     0.9490 c3         1 0QH      -0.087100
     38 H           -4.0250     0.6330    -1.4420 hn         1 0QH       0.363500
     39 HA          -1.7030     1.2210     0.3570 h1         1 0QH       0.092700
     40 HB2         -3.8500    -0.9170     0.8730 hc         1 0QH       0.063200
     41 HB3         -2.3070    -0.8900     1.7010 hc         1 0QH       0.063200
     42 HG          -4.3860     1.3450     1.8900 hc         1 0QH       0.050700
     43 HD11        -3.7790    -0.8940     3.8910 hc         1 0QH       0.043367
     44 HD12        -4.8990     0.4610     4.1490 hc         1 0QH       0.043367
     45 HD13        -5.2460    -0.7470     2.8990 hc         1 0QH       0.043367
     46 HD21        -1.8210     0.8910     3.5230 hc         1 0QH       0.043367
     47 HD22        -2.0910     2.2030     2.3560 hc         1 0QH       0.043367
     48 HD23        -3.0420     2.1400     3.8450 hc         1 0QH       0.043367
     49 HN22        -0.2170    -0.6260     0.5580 hn         1 0QH       0.390500
     50 H1          -1.1140    -3.1930    -1.9360 hx         1 0QH       0.103200
     51 H2A          0.3320    -4.0960    -1.5060 hx         1 0QH       0.103200
     52 H2          -3.0210    -3.0420    -0.4590 ha         1 0QH       0.116500
     53 H3          -4.1830    -3.8470     1.5820 ha         1 0QH       0.135500
     54 H4          -2.9360    -5.1550     3.3000 ha         1 0QH       0.138000
     55 H5          -0.5190    -5.6660     2.9600 ha         1 0QH       0.135500
     56 H6           0.6540    -4.8610     0.9240 ha         1 0QH       0.116500
     57 H1M1         1.4040    -0.5730    -2.2170 hx         1 0QH       0.107033
     58 H1M2         1.5710    -2.2670    -2.7650 hx         1 0QH       0.107033
     59 H1M3         0.0360    -1.3940    -3.0100 hx         1 0QH       0.107033
     60 HA21         1.2290    -2.6530     0.8980 hx         1 0QH       0.117200
     61 HA22         2.2530    -2.9990    -0.5030 hx         1 0QH       0.117200
     62 HN12         3.8290    -1.7230    -1.0060 hn         1 0QH       0.161000
     63 H21          5.9000    -1.1580    -1.7490 ha         1 0QH       0.122500
     64 H31          7.7920     0.4230    -1.8000 ha         1 0QH       0.129000
     65 H51          5.7300     2.9790     1.0120 ha         1 0QH       0.129000
     66 H61          3.8470     1.4200     1.0690 ha         1 0QH       0.122500
     67 H7           8.8450     2.4010    -1.1180 hc         1 0QH       0.056700
     68 H2'1         6.9320     4.6610    -0.3360 hc         1 0QH       0.040867
     69 H2'2         8.5290     4.8320    -1.0930 hc         1 0QH       0.040867
     70 H2'3         7.2050     4.0590    -1.9860 hc         1 0QH       0.040867
     71 H3'1         9.0680     1.9390     1.3170 hc         1 0QH       0.040867
     72 H3'2         9.6470     3.5600     0.8880 hc         1 0QH       0.040867
     73 H3'3         8.0720     3.3640     1.6850 hc         1 0QH       0.040867
@<TRIPOS>BOND
     1     1     2 1   
     2     1     3 2   
     3     1     7 1   
     4     2     4 1   
     5     2     5 1   
     6     2     6 1   
     7     7     8 1   
     8     7    38 1   
     9     8     9 1   
    10     8    11 1   
    11     8    39 1   
    12     9    10 2   
    13     9    16 1   
    14    11    12 1   
    15    11    40 1   
    16    11    41 1   
    17    12    13 1   
    18    12    14 1   
    19    12    42 1   
    20    13    43 1   
    21    13    44 1   
    22    13    45 1   
    23    14    46 1   
    24    14    47 1   
    25    14    48 1   
    26    15    16 1   
    27    15    17 1   
    28    15    24 1   
    29    15    25 1   
    30    16    49 1   
    31    17    18 1   
    32    17    50 1   
    33    17    51 1   
    34    18    19 ar  
    35    18    23 ar  
    36    19    20 ar  
    37    19    52 1   
    38    20    21 ar  
    39    20    53 1   
    40    21    22 ar  
    41    21    54 1   
    42    22    23 ar  
    43    22    55 1   
    44    23    56 1   
    45    24    57 1   
    46    24    58 1   
    47    24    59 1   
    48    25    26 1   
    49    25    60 1   
    50    25    61 1   
    51    26    27 2   
    52    26    29 1   
    53    28    29 1   
    54    28    30 ar  
    55    28    34 ar  
    56    29    62 1   
    57    30    31 ar  
    58    30    63 1   
    59    31    32 ar  
    60    31    64 1   
    61    32    33 ar  
    62    32    35 1   
    63    33    34 ar  
    64    33    65 1   
    65    34    66 1   
    66    35    36 1   
    67    35    37 1   
    68    35    67 1   
    69    36    68 1   
    70    36    69 1   
    71    36    70 1   
    72    37    71 1   
    73    37    72 1   
    74    37    73 1   
@<TRIPOS>SUBSTRUCTURE
     1 0QH         1 TEMP              0 ****  ****    0 ROOT
