@<TRIPOS>MOLECULE
0QH
   73    74     1     0     0
SMALL
bcc


@<TRIPOS>ATOM
      1 C1          -2.5250     2.2400    -1.0520 c          1 0QH       0.609100
      2 C2          -3.3410     3.3780    -1.6780 c3         1 0QH       0.607900
      3 O           -1.3770     2.0770    -1.4130 o          1 0QH      -0.567100
      4 F1          -3.4010     3.2180    -2.9970 f          1 0QH      -0.213300
      5 F2          -4.5900     3.4450    -1.2140 f          1 0QH      -0.213300
      6 F3          -2.7470     4.5420    -1.4300 f          1 0QH      -0.213300
      7 N           -3.1400     1.5000    -0.1310 ns         1 0QH      -0.540900
      8 CA          -2.4180     0.4360     0.5200 c3         1 0QH       0.054700
      9 C           -1.9430    -0.5580    -0.5390 c          1 0QH       0.652100
     10 O1          -2.6460    -0.9350    -1.4460 o          1 0QH      -0.540100
     11 CB          -3.3000    -0.2990     1.5310 c3         1 0QH      -0.089400
     12 CG          -3.8720     0.5810     2.6460 c3         1 0QH      -0.059700
     13 CD1         -4.6990    -0.2890     3.5880 c3         1 0QH      -0.095100
     14 CD2         -2.7910     1.3350     3.4110 c3         1 0QH      -0.095100
     15 N1           0.0250    -1.8600    -1.1630 n4         1 0QH      -0.377800
     16 N2          -0.6900    -1.0250    -0.2680 ns         1 0QH      -0.466300
     17 C3          -0.6720    -3.2200    -1.3470 c3         1 0QH       0.209100
     18 C11         -0.9470    -3.9370    -0.0650 ca         1 0QH      -0.157300
     19 C21         -2.1710    -3.7780     0.5810 ca         1 0QH      -0.099500
     20 C31         -2.4370    -4.4550     1.7610 ca         1 0QH      -0.121000
     21 C4          -1.4840    -5.3070     2.3030 ca         1 0QH      -0.079000
     22 C5          -0.2730    -5.4950     1.6520 ca         1 0QH      -0.121000
     23 C6          -0.0090    -4.8170     0.4700 ca         1 0QH      -0.099500
     24 C1M          0.2010    -1.2300    -2.5150 c3         1 0QH       0.086100
     25 CA2          1.3760    -2.1100    -0.5550 c3         1 0QH       0.012800
     26 CA1          2.1970    -0.8410    -0.3720 c          1 0QH       0.653100
     27 O2           1.7020     0.1600     0.1270 o          1 0QH      -0.580100
     28 C12          4.4880    -0.0010    -0.5240 ca         1 0QH       0.002600
     29 N11          3.4750    -0.9620    -0.7430 ns         1 0QH      -0.431100
     30 C22          5.7370    -0.4480    -0.1140 ca         1 0QH      -0.127000
     31 C32          6.7660     0.4600     0.0900 ca         1 0QH      -0.105500
     32 C41          6.5750     1.8250    -0.1020 ca         1 0QH      -0.049300
     33 C51          5.3170     2.2510    -0.5230 ca         1 0QH      -0.105500
     34 C61          4.2790     1.3570    -0.7380 ca         1 0QH      -0.127000
     35 C7           7.7110     2.7990     0.1040 c3         1 0QH      -0.022400
     36 C8           8.2230     3.3220    -1.2390 c3         1 0QH      -0.087100
     37 C9           7.3280     3.9490     1.0320 c3         1 0QH      -0.087100
     38 H           -4.1140     1.6400     0.0890 hn         1 0QH       0.363500
     39 HA          -1.5540     0.8580     1.0410 h1         1 0QH       0.092700
     40 HB2         -4.1200    -0.7910     1.0000 hc         1 0QH       0.063200
     41 HB3         -2.6890    -1.0900     1.9770 hc         1 0QH       0.063200
     42 HG          -4.5510     1.3170     2.2010 hc         1 0QH       0.050700
     43 HD11        -4.0710    -1.0350     4.0800 hc         1 0QH       0.043367
     44 HD12        -5.1670     0.3160     4.3660 hc         1 0QH       0.043367
     45 HD13        -5.4910    -0.8180     3.0550 hc         1 0QH       0.043367
     46 HD21        -2.0770     0.6450     3.8660 hc         1 0QH       0.043367
     47 HD22        -2.2340     2.0220     2.7720 hc         1 0QH       0.043367
     48 HD23        -3.2340     1.9300     4.2110 hc         1 0QH       0.043367
     49 HN22        -0.0500    -0.4190     0.2500 hn         1 0QH       0.390500
     50 H1          -1.5830    -3.0160    -1.9000 hx         1 0QH       0.103200
     51 H2A         -0.0010    -3.7850    -1.9940 hx         1 0QH       0.103200
     52 H2          -2.9370    -3.1480     0.1480 ha         1 0QH       0.134500
     53 H3          -3.3930    -4.3240     2.2510 ha         1 0QH       0.153500
     54 H4          -1.6920    -5.8360     3.2240 ha         1 0QH       0.156000
     55 H5           0.4640    -6.1740     2.0580 ha         1 0QH       0.153500
     56 H6           0.9310    -4.9880    -0.0410 ha         1 0QH       0.134500
     57 H1M1         0.6000    -0.2280    -2.3950 hx         1 0QH       0.107033
     58 H1M2         0.8890    -1.8480    -3.0870 hx         1 0QH       0.107033
     59 H1M3        -0.7560    -1.1860    -3.0210 hx         1 0QH       0.107033
     60 HA21         1.2240    -2.5540     0.4300 hx         1 0QH       0.117200
     61 HA22         1.8710    -2.8370    -1.1940 hx         1 0QH       0.117200
     62 HN12         3.7830    -1.8580    -1.0950 hn         1 0QH       0.327500
     63 H21          5.9080    -1.5050     0.0520 ha         1 0QH       0.140500
     64 H31          7.7330     0.0940     0.4130 ha         1 0QH       0.147000
     65 H51          5.1300     3.3030    -0.6990 ha         1 0QH       0.147000
     66 H61          3.3250     1.7260    -1.0850 ha         1 0QH       0.140500
     67 H7           8.5290     2.2480     0.5780 hc         1 0QH       0.056700
     68 H2'1         7.4480     3.8780    -1.7700 hc         1 0QH       0.040867
     69 H2'2         9.0710     3.9930    -1.0920 hc         1 0QH       0.040867
     70 H2'3         8.5490     2.5060    -1.8850 hc         1 0QH       0.040867
     71 H3'1         6.9790     3.5840     1.9990 hc         1 0QH       0.040867
     72 H3'2         8.1890     4.5960     1.2100 hc         1 0QH       0.040867
     73 H3'3         6.5390     4.5690     0.6030 hc         1 0QH       0.040867
@<TRIPOS>BOND
     1     1     2 1   
     2     1     3 2   
     3     1     7 1   
     4     2     4 1   
     5     2     5 1   
     6     2     6 1   
     7     7     8 1   
     8     7    38 1   
     9     8     9 1   
    10     8    11 1   
    11     8    39 1   
    12     9    10 2   
    13     9    16 1   
    14    11    12 1   
    15    11    40 1   
    16    11    41 1   
    17    12    13 1   
    18    12    14 1   
    19    12    42 1   
    20    13    43 1   
    21    13    44 1   
    22    13    45 1   
    23    14    46 1   
    24    14    47 1   
    25    14    48 1   
    26    15    16 1   
    27    15    17 1   
    28    15    24 1   
    29    15    25 1   
    30    16    49 1   
    31    17    18 1   
    32    17    50 1   
    33    17    51 1   
    34    18    19 ar  
    35    18    23 ar  
    36    19    20 ar  
    37    19    52 1   
    38    20    21 ar  
    39    20    53 1   
    40    21    22 ar  
    41    21    54 1   
    42    22    23 ar  
    43    22    55 1   
    44    23    56 1   
    45    24    57 1   
    46    24    58 1   
    47    24    59 1   
    48    25    26 1   
    49    25    60 1   
    50    25    61 1   
    51    26    27 2   
    52    26    29 1   
    53    28    29 1   
    54    28    30 ar  
    55    28    34 ar  
    56    29    62 1   
    57    30    31 ar  
    58    30    63 1   
    59    31    32 ar  
    60    31    64 1   
    61    32    33 ar  
    62    32    35 1   
    63    33    34 ar  
    64    33    65 1   
    65    34    66 1   
    66    35    36 1   
    67    35    37 1   
    68    35    67 1   
    69    36    68 1   
    70    36    69 1   
    71    36    70 1   
    72    37    71 1   
    73    37    72 1   
    74    37    73 1   
@<TRIPOS>SUBSTRUCTURE
     1 0QH         1 TEMP              0 ****  ****    0 ROOT
