@<TRIPOS>MOLECULE
0QI
   47    47     1     0     0
SMALL
No Charge or Current Charge


@<TRIPOS>ATOM
      1 C1          -2.9460    23.7620    47.7360 c          1 0QI       0.599100
      2 O1          -2.3770    24.5960    48.4300 o          1 0QI      -0.656100
      3 C2          -2.9370    22.2570    48.0700 c3         1 0QI      -0.136700
      4 CH          -1.5010    21.6920    48.0380 c3         1 0QI       0.091600
      5 S           -0.7530    21.6570    46.3470 sh         1 0QI      -0.423800
      6 C3          -3.6250    21.9730    49.4370 c3         1 0QI      -0.056400
      7 C4          -5.0840    22.4950    49.5860 c3         1 0QI      -0.062700
      8 CM          -5.6040    22.2620    51.0230 c3         1 0QI      -0.087600
      9 C5          -6.0550    21.8800    48.5490 c3         1 0QI      -0.087600
     10 N           -3.6850    24.1120    46.6260 ns         1 0QI      -0.453900
     11 CA          -3.9930    25.4980    46.1930 c3         1 0QI      -0.040300
     12 C           -5.2590    25.5310    45.2790 c          1 0QI       0.714000
     13 O           -5.8790    26.5820    45.1960 o          1 0QI      -0.722500
     14 CB          -2.7850    26.2200    45.5400 c3         1 0QI      -0.024100
     15 CG          -2.1900    25.4830    44.3430 ca         1 0QI      -0.063300
     16 CD1         -2.7670    25.6170    43.0640 ca         1 0QI      -0.071500
     17 CD2         -1.0440    24.6820    44.5000 ca         1 0QI      -0.071500
     18 CE1         -2.2130    24.9490    41.9580 ca         1 0QI      -0.176000
     19 CE2         -0.4890    24.0140    43.3940 ca         1 0QI      -0.176000
     20 CZ          -1.0670    24.1410    42.1220 ca         1 0QI       0.104100
     21 OH          -0.4790    23.4620    41.0740 os         1 0QI      -0.358100
     22 OXT         -5.6400    24.4890    44.7600 o          1 0QI      -0.722500
     23 C6          -0.9960    23.5250    39.7330 c3         1 0QI       0.155900
     24 H2          -3.5010    21.7250    47.2960 hc         1 0QI       0.067700
     25 HH1         -0.8530    22.2810    48.7000 h1         1 0QI       0.055700
     26 HH2         -1.5110    20.6590    48.4110 h1         1 0QI       0.055700
     27 HS           0.4290    21.1090    46.7190 hs         1 0QI       0.184800
     28 H31         -3.6200    20.8900    49.6170 hc         1 0QI       0.034200
     29 H32         -3.0120    22.4170    50.2310 hc         1 0QI       0.034200
     30 H4          -5.0780    23.5810    49.4280 hc         1 0QI       0.070700
     31 HM1         -6.6110    22.6800    51.1450 hc         1 0QI       0.030200
     32 HM2         -5.6470    21.1910    51.2550 hc         1 0QI       0.030200
     33 HM3         -4.9490    22.7460    51.7570 hc         1 0QI       0.030200
     34 H51         -7.0790    22.2340    48.7220 hc         1 0QI       0.030200
     35 H52         -5.7790    22.1640    47.5270 hc         1 0QI       0.030200
     36 H53         -6.0570    20.7860    48.6170 hc         1 0QI       0.030200
     37 H           -4.1240    23.3570    46.1110 hn         1 0QI       0.338500
     38 HA          -4.2630    26.0640    47.0940 h1         1 0QI       0.047700
     39 HB2         -3.0940    27.2280    45.2400 hc         1 0QI       0.052700
     40 HB3         -2.0110    26.3690    46.3030 hc         1 0QI       0.052700
     41 HD1         -3.6470    26.2420    42.9270 ha         1 0QI       0.126000
     42 HD2         -0.5850    24.5750    45.4800 ha         1 0QI       0.126000
     43 HE1         -2.6840    25.0720    40.9870 ha         1 0QI       0.104000
     44 HE2          0.3930    23.3930    43.5270 ha         1 0QI       0.104000
     45 HC1         -0.3820    22.9140    39.0600 h1         1 0QI       0.029700
     46 HC2         -2.0250    23.1450    39.6940 h1         1 0QI       0.029700
     47 HC3         -0.9860    24.5570    39.3600 h1         1 0QI       0.029700
@<TRIPOS>BOND
     1     1     2 2   
     2     1     3 1   
     3     1    10 1   
     4     3     4 1   
     5     3     6 1   
     6     3    24 1   
     7     4     5 1   
     8     4    25 1   
     9     4    26 1   
    10     5    27 1   
    11     6     7 1   
    12     6    28 1   
    13     6    29 1   
    14     7     8 1   
    15     7     9 1   
    16     7    30 1   
    17     8    31 1   
    18     8    32 1   
    19     8    33 1   
    20     9    34 1   
    21     9    35 1   
    22     9    36 1   
    23    10    11 1   
    24    10    37 1   
    25    11    12 1   
    26    11    14 1   
    27    11    38 1   
    28    12    13 1   
    29    12    22 1   
    30    14    15 1   
    31    14    39 1   
    32    14    40 1   
    33    15    16 ar  
    34    15    17 ar  
    35    16    18 ar  
    36    16    41 1   
    37    17    19 ar  
    38    17    42 1   
    39    18    20 ar  
    40    18    43 1   
    41    19    20 ar  
    42    19    44 1   
    43    20    21 1   
    44    21    23 1   
    45    23    45 1   
    46    23    46 1   
    47    23    47 1   
@<TRIPOS>SUBSTRUCTURE
     1 0QI         1 TEMP              0 ****  ****    0 ROOT
