@<TRIPOS>MOLECULE
0QI
   47    47     1     0     0
SMALL
bcc


@<TRIPOS>ATOM
      1 C1          -3.0260    23.6800    47.5370 c          1 0QI       0.666100
      2 O1          -2.2900    24.3560    48.2480 o          1 0QI      -0.656100
      3 C2          -3.1390    22.1730    47.7280 c3         1 0QI      -0.136700
      4 CH          -1.7720    21.5140    47.5820 c3         1 0QI       0.043700
      5 S           -1.1500    21.7510    45.8810 sh         1 0QI      -0.375900
      6 C3          -3.7060    21.8620    49.1180 c3         1 0QI      -0.056400
      7 C4          -5.0510    22.5090    49.4600 c3         1 0QI      -0.062700
      8 CM          -5.4340    22.1470    50.8910 c3         1 0QI      -0.087600
      9 C5          -6.1630    22.1030    48.4980 c3         1 0QI      -0.087600
     10 N           -3.7990    24.1890    46.5750 ns         1 0QI      -0.520900
     11 CA          -3.9840    25.5960    46.3130 c3         1 0QI      -0.040300
     12 C           -5.2900    25.7970    45.4930 c          1 0QI       0.924600
     13 O           -5.5610    26.9730    45.2020 o          1 0QI      -0.827800
     14 CB          -2.7590    26.2640    45.6780 c3         1 0QI      -0.024100
     15 CG          -2.1260    25.5600    44.5060 ca         1 0QI      -0.063300
     16 CD1         -2.8420    24.8430    43.5540 ca         1 0QI      -0.089500
     17 CD2         -0.7440    25.6430    44.3280 ca         1 0QI      -0.089500
     18 CE1         -2.2210    24.2460    42.4620 ca         1 0QI      -0.194000
     19 CE2         -0.1060    25.0600    43.2480 ca         1 0QI      -0.194000
     20 CZ          -0.8440    24.3570    42.2950 ca         1 0QI       0.104100
     21 OH          -0.1520    23.8250    41.2660 os         1 0QI      -0.334900
     22 OXT         -5.9520    24.7740    45.2210 o          1 0QI      -0.827800
     23 C6          -0.8650    23.1310    40.2650 c3         1 0QI       0.132700
     24 H2          -3.8040    21.7490    46.9690 hc         1 0QI       0.067700
     25 HH1         -1.0670    21.9490    48.2900 h1         1 0QI       0.055700
     26 HH2         -1.8560    20.4480    47.7880 h1         1 0QI       0.055700
     27 HS           0.0330    21.1490    46.0440 hs         1 0QI       0.184800
     28 H31         -3.8080    20.7760    49.2080 hc         1 0QI       0.034200
     29 H32         -2.9690    22.1630    49.8690 hc         1 0QI       0.034200
     30 H4          -4.9390    23.5980    49.4130 hc         1 0QI       0.070700
     31 HM1         -6.3680    22.6280    51.1840 hc         1 0QI       0.030200
     32 HM2         -5.5700    21.0680    50.9970 hc         1 0QI       0.030200
     33 HM3         -4.6640    22.4550    51.6020 hc         1 0QI       0.030200
     34 H51         -7.1200    22.5160    48.8200 hc         1 0QI       0.030200
     35 H52         -5.9920    22.4570    47.4810 hc         1 0QI       0.030200
     36 H53         -6.2690    21.0160    48.4600 hc         1 0QI       0.030200
     37 H           -4.4360    23.5900    46.0710 hn         1 0QI       0.338500
     38 HA          -4.1500    26.1090    47.2680 h1         1 0QI       0.047700
     39 HB2         -3.0610    27.2740    45.3870 hc         1 0QI       0.052700
     40 HB3         -1.9960    26.3960    46.4470 hc         1 0QI       0.052700
     41 HD1         -3.9120    24.7160    43.6510 ha         1 0QI       0.144000
     42 HD2         -0.1460    26.1780    45.0570 ha         1 0QI       0.144000
     43 HE1         -2.8320    23.6990    41.7550 ha         1 0QI       0.122000
     44 HE2          0.9680    25.1440    43.1370 ha         1 0QI       0.122000
     45 HC1         -0.1320    22.8100    39.5280 h1         1 0QI       0.029700
     46 HC2         -1.3750    22.2480    40.6600 h1         1 0QI       0.029700
     47 HC3         -1.6030    23.7690    39.7700 h1         1 0QI       0.029700
@<TRIPOS>BOND
     1     1     2 2   
     2     1     3 1   
     3     1    10 1   
     4     3     4 1   
     5     3     6 1   
     6     3    24 1   
     7     4     5 1   
     8     4    25 1   
     9     4    26 1   
    10     5    27 1   
    11     6     7 1   
    12     6    28 1   
    13     6    29 1   
    14     7     8 1   
    15     7     9 1   
    16     7    30 1   
    17     8    31 1   
    18     8    32 1   
    19     8    33 1   
    20     9    34 1   
    21     9    35 1   
    22     9    36 1   
    23    10    11 1   
    24    10    37 1   
    25    11    12 1   
    26    11    14 1   
    27    11    38 1   
    28    12    13 1   
    29    12    22 1   
    30    14    15 1   
    31    14    39 1   
    32    14    40 1   
    33    15    16 ar  
    34    15    17 ar  
    35    16    18 ar  
    36    16    41 1   
    37    17    19 ar  
    38    17    42 1   
    39    18    20 ar  
    40    18    43 1   
    41    19    20 ar  
    42    19    44 1   
    43    20    21 1   
    44    21    23 1   
    45    23    45 1   
    46    23    46 1   
    47    23    47 1   
@<TRIPOS>SUBSTRUCTURE
     1 0QI         1 TEMP              0 ****  ****    0 ROOT
