@<TRIPOS>MOLECULE
0QJ
   73    76     1     0     0
SMALL
bcc


@<TRIPOS>ATOM
      1 C2           6.7730     2.6960    -1.2070 ca         1 0QJ       0.701900
      2 C4           5.3230     1.2480    -0.4180 ca         1 0QJ       0.455800
      3 C5           5.0150     2.0590     0.6650 ca         1 0QJ      -0.230200
      4 C6           5.7020     3.2840     0.7420 ca         1 0QJ       0.774200
      5 C8           3.7960     0.3450     0.8660 cc         1 0QJ       0.408700
      6 CBA        -10.1780     2.7960    -1.5040 c3         1 0QJ      -0.082433
      7 CBB        -10.5910     2.2620     0.9070 c3         1 0QJ      -0.082433
      8 CBC        -10.9990     0.5490    -0.8450 c3         1 0QJ      -0.082433
      9 CAY         -8.6360     1.2650    -0.2720 ca         1 0QJ      -0.095300
     10 CBD         -8.2160    -0.0540    -0.3910 ca         1 0QJ      -0.097000
     11 CBE         -6.8870    -0.4390    -0.2400 ca         1 0QJ      -0.174000
     12 CAX         -7.6440     2.2070     0.0170 ca         1 0QJ      -0.097000
     13 CAW         -6.3200     1.8470     0.1710 ca         1 0QJ      -0.174000
     14 CAV         -5.9120     0.5150     0.0440 ca         1 0QJ       0.089600
     15 NAU         -4.5510     0.2610     0.2000 ns         1 0QJ      -0.489100
     16 CAT         -3.8920    -0.9430     0.2010 c          1 0QJ       0.794100
     17 OBF         -4.4510    -2.0250     0.0910 o          1 0QJ      -0.624100
     18 NAS         -2.5510    -0.8190     0.3610 ns         1 0QJ      -0.587900
     19 CAR         -1.6610    -1.9560     0.2770 c3         1 0QJ       0.113000
     20 CAQ         -0.3040    -1.6030     0.8680 c3         1 0QJ      -0.097400
     21 CAP          0.6760    -2.7610     0.7430 c3         1 0QJ       0.174800
     22 NAN          1.9670    -2.4530     1.3330 n3         1 0QJ      -0.725600
     23 CAO          1.9390    -2.5580     2.7780 c3         1 0QJ       0.148100
     24 CAM          3.0640    -3.2230     0.7900 c3         1 0QJ       0.149800
     25 CAL          3.3330    -2.9820    -0.6960 c5         1 0QJ       0.139100
     26 OBG          3.2430    -1.6020    -1.0560 os         1 0QJ      -0.380600
     27 CAJ          4.7500    -3.3880    -1.0670 c5         1 0QJ       0.086100
     28 OAK          4.8030    -3.6530    -2.4430 oh         1 0QJ      -0.581800
     29 CAH          5.5150    -2.1030    -0.7280 c5         1 0QJ       0.057100
     30 OAI          6.7080    -1.9360    -1.4360 oh         1 0QJ      -0.565800
     31 CAG          4.5050    -1.0200    -1.1340 c5         1 0QJ       0.270800
     32 N9           4.5330     0.1460    -0.2700 na         1 0QJ      -0.271000
     33 N7           4.0560     1.4790     1.4530 nd         1 0QJ      -0.566100
     34 N3           6.1980     1.5200    -1.3850 nb         1 0QJ      -0.736000
     35 N1           6.5850     3.5710    -0.2210 nb         1 0QJ      -0.828000
     36 N6           5.4960     4.1650     1.7240 nv         1 0QJ      -0.955500
     37 H1           7.4970     2.9920    -1.9590 h5         1 0QJ       0.045100
     38 H2           3.0560    -0.3800     1.1860 h5         1 0QJ       0.097800
     39 H3          -9.7960     2.4400    -2.4620 hc         1 0QJ       0.034256
     40 H4         -11.2160     3.1020    -1.6490 hc         1 0QJ       0.034256
     41 H5          -9.6140     3.6870    -1.2270 hc         1 0QJ       0.034256
     42 H6         -11.6300     2.5880     0.8200 hc         1 0QJ       0.034256
     43 H7         -10.5430     1.5060     1.6920 hc         1 0QJ       0.034256
     44 H8         -10.0050     3.1220     1.2350 hc         1 0QJ       0.034256
     45 H9         -10.6960     0.1100    -1.7980 hc         1 0QJ       0.034256
     46 H10        -11.0240    -0.2480    -0.0990 hc         1 0QJ       0.034256
     47 H11        -12.0210     0.9140    -0.9630 hc         1 0QJ       0.034256
     48 H13         -6.6300    -1.4800    -0.3470 ha         1 0QJ       0.144500
     49 H14         -7.8990     3.2540     0.1260 ha         1 0QJ       0.129000
     50 H15         -5.5860     2.6150     0.3910 ha         1 0QJ       0.144500
     51 H16         -3.9910     1.0830     0.3630 hn         1 0QJ       0.310500
     52 H17         -2.1300     0.0900     0.2460 hn         1 0QJ       0.306500
     53 H18         -2.0960    -2.7890     0.8300 h1         1 0QJ       0.051700
     54 H19         -1.5410    -2.2890    -0.7600 h1         1 0QJ       0.051700
     55 H20          0.1190    -0.7370     0.3510 hc         1 0QJ       0.054700
     56 H21         -0.4410    -1.3160     1.9130 hc         1 0QJ       0.054700
     57 H22          0.2430    -3.6750     1.1860 h1         1 0QJ       0.037200
     58 H23          0.8050    -2.9770    -0.3180 h1         1 0QJ       0.037200
     59 H25          1.7410    -3.5820     3.1320 h1         1 0QJ       0.036033
     60 H26          2.8960    -2.2400     3.1960 h1         1 0QJ       0.036033
     61 H27          1.1710    -1.9100     3.1960 h1         1 0QJ       0.036033
     62 H28          3.9550    -2.9620     1.3700 h1         1 0QJ       0.037200
     63 H29          2.9310    -4.3110     0.9200 h1         1 0QJ       0.037200
     64 H30          2.6040    -3.5200    -1.3060 h1         1 0QJ       0.097700
     65 H31          5.0990    -4.2420    -0.4710 h1         1 0QJ       0.055700
     66 H32          5.7140    -3.5290    -2.7350 ho         1 0QJ       0.426000
     67 H33          5.6830    -2.0530     0.3550 h1         1 0QJ       0.057700
     68 H34          7.4100    -2.4050    -0.9740 ho         1 0QJ       0.415000
     69 H35          4.7170    -0.6640    -2.1480 h2         1 0QJ       0.120700
     70 H36          4.9060     3.9390     2.5050 hn         1 0QJ       0.448800
     71 H37          6.0560     4.9980     1.7790 hn         1 0QJ       0.448800
     72 H12         -8.9320    -0.8350    -0.6090 ha         1 0QJ       0.129000
     73 CAZ        -10.0870     1.7030    -0.4300 c3         1 0QJ       0.006300
@<TRIPOS>BOND
     1     1    34 ar  
     2     1    35 ar  
     3     1    37 1   
     4     2     3 ar  
     5     2    32 1   
     6     2    34 ar  
     7     3     4 ar  
     8     3    33 1   
     9     4    35 ar  
    10     4    36 1   
    11     5    32 1   
    12     5    33 2   
    13     5    38 1   
    14     6    39 1   
    15     6    40 1   
    16     6    41 1   
    17     6    73 1   
    18     7    42 1   
    19     7    43 1   
    20     7    44 1   
    21     7    73 1   
    22     8    45 1   
    23     8    46 1   
    24     8    47 1   
    25     8    73 1   
    26     9    10 ar  
    27     9    12 ar  
    28     9    73 1   
    29    10    11 ar  
    30    10    72 1   
    31    11    14 ar  
    32    11    48 1   
    33    12    13 ar  
    34    12    49 1   
    35    13    14 ar  
    36    13    50 1   
    37    14    15 1   
    38    15    16 1   
    39    15    51 1   
    40    16    17 2   
    41    16    18 1   
    42    18    19 1   
    43    18    52 1   
    44    19    20 1   
    45    19    53 1   
    46    19    54 1   
    47    20    21 1   
    48    20    55 1   
    49    20    56 1   
    50    21    22 1   
    51    21    57 1   
    52    21    58 1   
    53    22    23 1   
    54    22    24 1   
    55    23    59 1   
    56    23    60 1   
    57    23    61 1   
    58    24    25 1   
    59    24    62 1   
    60    24    63 1   
    61    25    26 1   
    62    25    27 1   
    63    25    64 1   
    64    26    31 1   
    65    27    28 1   
    66    27    29 1   
    67    27    65 1   
    68    28    66 1   
    69    29    30 1   
    70    29    31 1   
    71    29    67 1   
    72    30    68 1   
    73    31    32 1   
    74    31    69 1   
    75    36    70 1   
    76    36    71 1   
@<TRIPOS>SUBSTRUCTURE
     1 0QJ         1 TEMP              0 ****  ****    0 ROOT
