@<TRIPOS>MOLECULE
0QJ
   73    76     1     0     0
SMALL
No Charge or Current Charge


@<TRIPOS>ATOM
      1 C2           4.4890     2.9910    -1.9640 ca         1 0QJ       0.175900
      2 C4           4.6750     1.1290    -0.6480 ca         1 0QJ       0.127500
      3 C5           4.6960     1.9220     0.4710 ca         1 0QJ      -0.099600
      4 C6           4.6020     3.3190     0.2980 ca         1 0QJ       0.445900
      5 C8           4.8600    -0.0960     1.2050 cc         1 0QJ       0.408700
      6 CBA         -9.9370     3.3820    -1.1410 c3         1 0QJ      -0.082433
      7 CBB        -10.7610     1.9860     0.8060 c3         1 0QJ      -0.082433
      8 CBC        -10.8220     1.0630    -1.5300 c3         1 0QJ      -0.082433
      9 CAY         -8.5610     1.4240    -0.3140 ca         1 0QJ      -0.095300
     10 CBD         -8.0570     0.2560    -0.9390 ca         1 0QJ      -0.079000
     11 CBE         -6.7440    -0.1870    -0.7000 ca         1 0QJ      -0.156000
     12 CAX         -7.6950     2.1260     0.5560 ca         1 0QJ      -0.079000
     13 CAW         -6.3840     1.6810     0.7920 ca         1 0QJ      -0.156000
     14 CAV         -5.8920     0.5230     0.1690 ca         1 0QJ      -0.003000
     15 NAU         -4.5550     0.1350     0.4570 ns         1 0QJ      -0.163000
     16 CAT         -3.7780    -0.9280     0.0240 c          1 0QJ       0.660100
     17 OBF         -4.1360    -1.8000    -0.7540 o          1 0QJ      -0.624100
     18 NAS         -2.5170    -0.9110     0.5710 ns         1 0QJ      -0.520900
     19 CAR         -1.4870    -1.9110     0.2900 c3         1 0QJ       0.113000
     20 CAQ         -0.2120    -1.6630     1.1150 c3         1 0QJ      -0.097400
     21 CAP          0.8860    -2.7110     0.8310 c3         1 0QJ       0.174800
     22 NAN          2.1990    -2.4220     1.4680 n3         1 0QJ      -0.725600
     23 CAO          2.1390    -2.3740     2.9500 c3         1 0QJ       0.148100
     24 CAM          3.2960    -3.3140     0.9930 c3         1 0QJ       0.149800
     25 CAL          3.6030    -3.3060    -0.5460 c5         1 0QJ       0.162300
     26 OBG          3.5490    -1.9660    -1.1020 os         1 0QJ      -0.427000
     27 CAJ          5.0420    -3.7900    -0.9060 c5         1 0QJ       0.109300
     28 OAK          5.2000    -4.1310    -2.2880 oh         1 0QJ      -0.704000
     29 CAH          5.8620    -2.5030    -0.5840 c5         1 0QJ       0.080300
     30 OAI          7.1080    -2.5020    -1.3140 oh         1 0QJ      -0.688000
     31 CAG          4.8590    -1.3630    -1.0160 c5         1 0QJ       0.323300
     32 N9           4.7860    -0.1540    -0.1920 na         1 0QJ      -0.300300
     33 N7           4.8170     1.1760     1.6480 nd         1 0QJ      -0.566100
     34 N3           4.5730     1.6410    -1.8910 nb         1 0QJ      -0.210000
     35 N1           4.5000     3.8620    -0.9250 nb         1 0QJ      -0.302000
     36 N6           4.6180     4.1900     1.3420 nv         1 0QJ      -1.065900
     37 H1           4.4070     3.4210    -2.9610 h5         1 0QJ       0.045100
     38 H2           4.9500    -0.9790     1.8250 h5         1 0QJ       0.097800
     39 H3          -9.3720     3.3860    -2.0810 hc         1 0QJ       0.034256
     40 H4         -10.9430     3.7680    -1.3490 hc         1 0QJ       0.034256
     41 H5          -9.4520     4.0830    -0.4530 hc         1 0QJ       0.034256
     42 H6         -11.7960     2.3210     0.6680 hc         1 0QJ       0.034256
     43 H7         -10.7870     0.9880     1.2620 hc         1 0QJ       0.034256
     44 H8         -10.2860     2.6700     1.5180 hc         1 0QJ       0.034256
     45 H9         -10.3460     1.0220    -2.5170 hc         1 0QJ       0.034256
     46 H10        -10.9260     0.0400    -1.1480 hc         1 0QJ       0.034256
     47 H11        -11.8330     1.4660    -1.6690 hc         1 0QJ       0.034256
     48 H13         -6.4100    -1.0870    -1.2050 ha         1 0QJ       0.126500
     49 H14         -8.0340     3.0280     1.0590 ha         1 0QJ       0.111000
     50 H15         -5.7460     2.2470     1.4680 ha         1 0QJ       0.126500
     51 H16         -4.0850     0.7560     1.1020 hn         1 0QJ       0.144000
     52 H17         -2.2970    -0.1540     1.2060 hn         1 0QJ       0.306500
     53 H18         -1.8870    -2.9080     0.5220 h1         1 0QJ       0.051700
     54 H19         -1.2450    -1.8780    -0.7810 h1         1 0QJ       0.051700
     55 H20          0.1790    -0.6650     0.8840 hc         1 0QJ       0.054700
     56 H21         -0.4750    -1.6780     2.1790 hc         1 0QJ       0.054700
     57 H22          0.5230    -3.6980     1.1490 h1         1 0QJ       0.037200
     58 H23          1.0080    -2.7540    -0.2590 h1         1 0QJ       0.037200
     59 H25          1.7930    -3.3330     3.3600 h1         1 0QJ       0.036033
     60 H26          3.1300    -2.1610     3.3730 h1         1 0QJ       0.036033
     61 H27          1.4630    -1.5830     3.2980 h1         1 0QJ       0.036033
     62 H28          4.2180    -3.0560     1.5270 h1         1 0QJ       0.037200
     63 H29          3.0700    -4.3520     1.2750 h1         1 0QJ       0.037200
     64 H30          2.8430    -3.9230    -1.0430 h1         1 0QJ       0.097700
     65 H31          5.3530    -4.6310    -0.2690 h1         1 0QJ       0.055700
     66 H32          6.0840    -3.7430    -2.5110 ho         1 0QJ       0.525000
     67 H33          6.0650    -2.4540     0.4940 h1         1 0QJ       0.057700
     68 H34          7.6950    -1.8170    -0.9120 ho         1 0QJ       0.514000
     69 H35          5.1390    -1.0160    -2.0190 h2         1 0QJ       0.120700
     70 H36          4.9130     3.8160     2.2410 hn         1 0QJ       0.504000
     71 H37          4.8500     5.1620     1.1540 hn         1 0QJ       0.504000
     72 H12         -8.6680    -0.3310    -1.6180 ha         1 0QJ       0.111000
     73 CAZ        -10.0030     1.9490    -0.5480 c3         1 0QJ       0.006300
@<TRIPOS>BOND
     1     1    34 ar  
     2     1    35 ar  
     3     1    37 1   
     4     2     3 ar  
     5     2    32 1   
     6     2    34 ar  
     7     3     4 ar  
     8     3    33 1   
     9     4    35 ar  
    10     4    36 1   
    11     5    32 1   
    12     5    33 2   
    13     5    38 1   
    14     6    39 1   
    15     6    40 1   
    16     6    41 1   
    17     6    73 1   
    18     7    42 1   
    19     7    43 1   
    20     7    44 1   
    21     7    73 1   
    22     8    45 1   
    23     8    46 1   
    24     8    47 1   
    25     8    73 1   
    26     9    10 ar  
    27     9    12 ar  
    28     9    73 1   
    29    10    11 ar  
    30    10    72 1   
    31    11    14 ar  
    32    11    48 1   
    33    12    13 ar  
    34    12    49 1   
    35    13    14 ar  
    36    13    50 1   
    37    14    15 1   
    38    15    16 1   
    39    15    51 1   
    40    16    17 2   
    41    16    18 1   
    42    18    19 1   
    43    18    52 1   
    44    19    20 1   
    45    19    53 1   
    46    19    54 1   
    47    20    21 1   
    48    20    55 1   
    49    20    56 1   
    50    21    22 1   
    51    21    57 1   
    52    21    58 1   
    53    22    23 1   
    54    22    24 1   
    55    23    59 1   
    56    23    60 1   
    57    23    61 1   
    58    24    25 1   
    59    24    62 1   
    60    24    63 1   
    61    25    26 1   
    62    25    27 1   
    63    25    64 1   
    64    26    31 1   
    65    27    28 1   
    66    27    29 1   
    67    27    65 1   
    68    28    66 1   
    69    29    30 1   
    70    29    31 1   
    71    29    67 1   
    72    30    68 1   
    73    31    32 1   
    74    31    69 1   
    75    36    70 1   
    76    36    71 1   
@<TRIPOS>SUBSTRUCTURE
     1 0QJ         1 TEMP              0 ****  ****    0 ROOT
