@<TRIPOS>MOLECULE
0QK
   80    83     1     0     0
SMALL
abcg2


@<TRIPOS>ATOM
      1 C2           9.2790     0.1050     1.8840 ca         1 0QK       0.180900
      2 C4           7.5150    -0.0950     0.5710 ca         1 0QK       0.155500
      3 C5           8.1280    -1.0850    -0.2020 ca         1 0QK      -0.261800
      4 C6           9.4340    -1.4360     0.1920 ca         1 0QK       0.434900
      5 CBI        -12.0530    -0.1470    -1.1490 c3         1 0QK      -0.082433
      6 CBJ        -11.9680     1.5300     0.7090 c3         1 0QK      -0.082433
      7 CBK        -12.2590    -0.8810     1.2140 c3         1 0QK      -0.082433
      8 CBE        -10.0460    -0.0200     0.3240 ca         1 0QK      -0.095300
      9 CBF         -9.2460     0.8210    -0.4510 ca         1 0QK      -0.080000
     10 CBG         -7.8630     0.7420    -0.4680 ca         1 0QK      -0.156000
     11 CBD         -9.3780    -0.9620     1.1010 ca         1 0QK      -0.080000
     12 CBC         -7.9950    -1.0640     1.0950 ca         1 0QK      -0.156000
     13 CBB         -7.2100    -0.2190     0.3100 ca         1 0QK      -0.003000
     14 NAZ         -5.8290    -0.3980     0.3710 ns         1 0QK      -0.163000
     15 CAY         -4.8530     0.1880    -0.3960 c          1 0QK       0.659100
     16 OBA         -5.0720     1.0620    -1.2220 o          1 0QK      -0.624100
     17 NAX         -3.6060    -0.2770    -0.1350 ns         1 0QK      -0.519900
     18 CAW         -2.4690     0.1420    -0.9250 c3         1 0QK       0.111000
     19 CAV         -1.1740    -0.3410    -0.2900 c3         1 0QK      -0.097400
     20 CAT          0.0120    -0.0040    -1.1850 c3         1 0QK       0.191800
     21 NAS          1.3130    -0.1160    -0.5450 n3         1 0QK      -0.744600
     22 CAU          1.7340    -1.4600    -0.1220 c3         1 0QK       0.191500
     23 CBM          1.2180    -1.8370     1.2640 c3         1 0QK      -0.100100
     24 CBL          1.4520    -2.5580    -1.1480 c3         1 0QK      -0.100100
     25 CAR          2.3510     0.5770    -1.2890 c3         1 0QK       0.186800
     26 CAN          3.2550     1.4270    -0.4130 c5         1 0QK       0.162300
     27 OAO          4.0360     0.6320     0.4750 os         1 0QK      -0.439000
     28 CAM          4.2770     2.2360    -1.2100 c5         1 0QK       0.087300
     29 OAQ          3.7020     3.4320    -1.6590 oh         1 0QK      -0.707000
     30 CAL          5.3960     2.4360    -0.1830 c5         1 0QK       0.100300
     31 OAP          5.0690     3.4680     0.7090 oh         1 0QK      -0.701000
     32 CAK          5.3450     1.1140     0.5870 c5         1 0QK       0.308300
     33 NAG          6.2700     0.1220     0.0730 na         1 0QK      -0.206400
     34 CAH          6.0820    -0.7110    -1.0090 cc         1 0QK      -0.174100
     35 CAI          7.1960    -1.4680    -1.2110 cd         1 0QK      -0.208200
     36 N3           8.0590     0.5290     1.6190 nb         1 0QK      -0.230000
     37 N1           9.9860    -0.8230     1.2440 nb         1 0QK      -0.302000
     38 NAJ         10.1600    -2.3530    -0.4590 nv         1 0QK      -1.075900
     39 H1           9.7750     0.5700     2.7290 h5         1 0QK       0.045100
     40 H2         -11.6170     0.5520    -1.8630 hc         1 0QK       0.034589
     41 H3         -11.7970    -1.1570    -1.4750 hc         1 0QK       0.034589
     42 H4         -13.1390    -0.0430    -1.2080 hc         1 0QK       0.034589
     43 H5         -13.0530     1.6450     0.6630 hc         1 0QK       0.034589
     44 H6         -11.6520     1.7370     1.7320 hc         1 0QK       0.034589
     45 H7         -11.5290     2.2920     0.0640 hc         1 0QK       0.034589
     46 H8         -12.0430    -1.9170     0.9450 hc         1 0QK       0.034589
     47 H9         -11.9720    -0.7360     2.2570 hc         1 0QK       0.034589
     48 H10        -13.3400    -0.7470     1.1490 hc         1 0QK       0.034589
     49 H12         -7.3040     1.4280    -1.0820 ha         1 0QK       0.126500
     50 H13         -9.9280    -1.6490     1.7300 ha         1 0QK       0.111500
     51 H14         -7.5210    -1.8210     1.7090 ha         1 0QK       0.126500
     52 H15         -5.5280    -1.0980     1.0320 hn         1 0QK       0.142000
     53 H16         -3.5000    -1.1250     0.4000 hn         1 0QK       0.304500
     54 H17         -2.5420    -0.2350    -1.9520 h1         1 0QK       0.051200
     55 H18         -2.4580     1.2310    -0.9890 h1         1 0QK       0.051200
     56 H19         -1.0400     0.1300     0.6870 hc         1 0QK       0.053700
     57 H20         -1.2370    -1.4190    -0.1220 hc         1 0QK       0.053700
     58 H21         -0.0620    -0.5990    -2.1100 h1         1 0QK       0.029200
     59 H22         -0.0990     1.0390    -1.4920 h1         1 0QK       0.029200
     60 H24          2.8180    -1.4030    -0.0180 h1         1 0QK       0.064700
     61 H25          1.7480    -2.7200     1.6260 hc         1 0QK       0.035867
     62 H26          1.3960    -1.0250     1.9700 hc         1 0QK       0.035867
     63 H27          0.1540    -2.0700     1.2800 hc         1 0QK       0.035867
     64 H28          0.3850    -2.7440    -1.2830 hc         1 0QK       0.035867
     65 H29          1.8720    -2.3110    -2.1250 hc         1 0QK       0.035867
     66 H30          1.9050    -3.4960    -0.8240 hc         1 0QK       0.035867
     67 H31          2.9560    -0.1050    -1.9080 h1         1 0QK       0.037700
     68 H32          1.8880     1.2730    -1.9930 h1         1 0QK       0.037700
     69 H33          2.6230     2.1080     0.1720 h1         1 0QK       0.089700
     70 H34          4.6530     1.6370    -2.0510 h1         1 0QK       0.051700
     71 H35          4.2400     3.7880    -2.3730 ho         1 0QK       0.516000
     72 H36          6.3780     2.5960    -0.6450 h1         1 0QK       0.073700
     73 H37          4.5800     4.1370     0.2140 ho         1 0QK       0.524000
     74 H38          5.6140     1.2710     1.6350 h2         1 0QK       0.131700
     75 H39          5.1530    -0.7210    -1.5540 h4         1 0QK       0.215000
     76 H40          7.3160    -2.2100    -1.9840 ha         1 0QK       0.200000
     77 H41          9.7610    -2.9160    -1.1890 hn         1 0QK       0.496500
     78 H42         11.0530    -2.6330    -0.0920 hn         1 0QK       0.496500
     79 H11         -9.7080     1.5770    -1.0750 ha         1 0QK       0.111500
     80 CBH        -11.5640     0.1130     0.2830 c3         1 0QK       0.006300
@<TRIPOS>BOND
     1     1    36 ar  
     2     1    37 ar  
     3     1    39 1   
     4     2     3 ar  
     5     2    33 1   
     6     2    36 ar  
     7     3     4 ar  
     8     3    35 1   
     9     4    37 ar  
    10     4    38 1   
    11     5    40 1   
    12     5    41 1   
    13     5    42 1   
    14     5    80 1   
    15     6    43 1   
    16     6    44 1   
    17     6    45 1   
    18     6    80 1   
    19     7    46 1   
    20     7    47 1   
    21     7    48 1   
    22     7    80 1   
    23     8     9 ar  
    24     8    11 ar  
    25     8    80 1   
    26     9    10 ar  
    27     9    79 1   
    28    10    13 ar  
    29    10    49 1   
    30    11    12 ar  
    31    11    50 1   
    32    12    13 ar  
    33    12    51 1   
    34    13    14 1   
    35    14    15 1   
    36    14    52 1   
    37    15    16 2   
    38    15    17 1   
    39    17    18 1   
    40    17    53 1   
    41    18    19 1   
    42    18    54 1   
    43    18    55 1   
    44    19    20 1   
    45    19    56 1   
    46    19    57 1   
    47    20    21 1   
    48    20    58 1   
    49    20    59 1   
    50    21    22 1   
    51    21    25 1   
    52    22    23 1   
    53    22    24 1   
    54    22    60 1   
    55    23    61 1   
    56    23    62 1   
    57    23    63 1   
    58    24    64 1   
    59    24    65 1   
    60    24    66 1   
    61    25    26 1   
    62    25    67 1   
    63    25    68 1   
    64    26    27 1   
    65    26    28 1   
    66    26    69 1   
    67    27    32 1   
    68    28    29 1   
    69    28    30 1   
    70    28    70 1   
    71    29    71 1   
    72    30    31 1   
    73    30    32 1   
    74    30    72 1   
    75    31    73 1   
    76    32    33 1   
    77    32    74 1   
    78    33    34 1   
    79    34    35 2   
    80    34    75 1   
    81    35    76 1   
    82    38    77 1   
    83    38    78 1   
@<TRIPOS>SUBSTRUCTURE
     1 0QK         1 TEMP              0 ****  ****    0 ROOT
