@<TRIPOS>MOLECULE
0QK
   80    83     1     0     0
SMALL
No Charge or Current Charge


@<TRIPOS>ATOM
      1 C2           8.1710    -2.5860     1.4030 ca         1 0QK       0.180900
      2 C4           7.4940    -0.9000     0.0040 ca         1 0QK       0.155500
      3 C5           8.2840    -1.4430    -0.9770 ca         1 0QK      -0.261800
      4 C6           9.0260    -2.5980    -0.7180 ca         1 0QK       0.434900
      5 CBI        -12.2230    -1.3930    -0.9740 c3         1 0QK      -0.082433
      6 CBJ        -12.3390     1.0690    -0.3870 c3         1 0QK      -0.082433
      7 CBK        -12.4610    -0.6710     1.4210 c3         1 0QK      -0.082433
      8 CBE        -10.2480    -0.2610     0.1340 ca         1 0QK      -0.095300
      9 CBF         -9.5040     0.0510    -1.0270 ca         1 0QK      -0.080000
     10 CBG         -8.1000     0.1120    -1.0030 ca         1 0QK      -0.156000
     11 CBD         -9.5270    -0.5110     1.3280 ca         1 0QK      -0.080000
     12 CBC         -8.1230    -0.4500     1.3490 ca         1 0QK      -0.156000
     13 CBB         -7.3930    -0.1390     0.1900 ca         1 0QK      -0.003000
     14 NAZ         -5.9760    -0.0970     0.2930 ns         1 0QK      -0.163000
     15 CAY         -4.9810     0.1700    -0.6340 c          1 0QK       0.659100
     16 OBA         -5.1600     0.4420    -1.8120 o          1 0QK      -0.624100
     17 NAX         -3.7220     0.1000    -0.0850 ns         1 0QK      -0.519900
     18 CAW         -2.4860     0.3350    -0.8320 c3         1 0QK       0.111000
     19 CAV         -1.2410     0.1020     0.0420 c3         1 0QK      -0.097400
     20 CAT          0.0730     0.3260    -0.7360 c3         1 0QK       0.191800
     21 NAS          1.3210     0.5470     0.0610 n3         1 0QK      -0.744600
     22 CAU          1.7760    -0.5840     0.9410 c3         1 0QK       0.191500
     23 CBM          0.9130    -0.8160     2.2030 c3         1 0QK      -0.100100
     24 CBL          2.0400    -1.9090     0.1860 c3         1 0QK      -0.100100
     25 CAR          2.3990     1.0960    -0.8290 c3         1 0QK       0.186800
     26 CAN          3.6960     1.6320    -0.1460 c5         1 0QK       0.162300
     27 OAO          4.6220     0.5540     0.1270 os         1 0QK      -0.439000
     28 CAM          4.5490     2.5980    -1.0250 c5         1 0QK       0.087300
     29 OAQ          4.0070     3.9300    -1.1320 oh         1 0QK      -0.707000
     30 CAL          5.8650     2.6110    -0.1990 c5         1 0QK       0.100300
     31 OAP          5.7060     3.5220     0.8990 oh         1 0QK      -0.701000
     32 CAK          5.9610     1.1010     0.2410 c5         1 0QK       0.308300
     33 NAG          6.8750     0.2340    -0.5200 na         1 0QK      -0.206400
     34 CAH          7.2680     0.4320    -1.8700 cc         1 0QK      -0.174100
     35 CAI          8.1390    -0.6080    -2.1410 cd         1 0QK      -0.208200
     36 N3           7.4240    -1.4680     1.2260 nb         1 0QK      -0.230000
     37 N1           8.9720    -3.1840     0.4860 nb         1 0QK      -0.302000
     38 NAJ          9.8180    -3.1880    -1.6460 nv         1 0QK      -1.075900
     39 H1           8.1210    -3.0530     2.3860 h5         1 0QK       0.045100
     40 H2         -11.8650    -1.1520    -1.9810 hc         1 0QK       0.034589
     41 H3         -11.8190    -2.3750    -0.6970 hc         1 0QK       0.034589
     42 H4         -13.3160    -1.4790    -1.0240 hc         1 0QK       0.034589
     43 H5         -13.4360     1.0710    -0.4170 hc         1 0QK       0.034589
     44 H6         -12.0180     1.8530     0.3100 hc         1 0QK       0.034589
     45 H7         -11.9830     1.3400    -1.3870 hc         1 0QK       0.034589
     46 H8         -12.1350    -1.6570     1.7750 hc         1 0QK       0.034589
     47 H9         -12.2160     0.0740     2.1870 hc         1 0QK       0.034589
     48 H10        -13.5540    -0.7000     1.3270 hc         1 0QK       0.034589
     49 H12         -7.5820     0.3560    -1.9240 ha         1 0QK       0.126500
     50 H13        -10.0330    -0.7560     2.2560 ha         1 0QK       0.111500
     51 H14         -7.5990    -0.6470     2.2820 ha         1 0QK       0.126500
     52 H15         -5.6330    -0.3010     1.2220 hn         1 0QK       0.142000
     53 H16         -3.6580    -0.1290     0.8990 hn         1 0QK       0.304500
     54 H17         -2.4600    -0.3410    -1.6970 h1         1 0QK       0.051200
     55 H18         -2.4890     1.3690    -1.2020 h1         1 0QK       0.051200
     56 H19         -1.2760     0.7770     0.9050 hc         1 0QK       0.053700
     57 H20         -1.2780    -0.9280     0.4080 hc         1 0QK       0.053700
     58 H21          0.2120    -0.5070    -1.4380 h1         1 0QK       0.029200
     59 H22         -0.0930     1.2180    -1.3560 h1         1 0QK       0.029200
     60 H24          2.7420    -0.2950     1.3710 h1         1 0QK       0.064700
     61 H25          1.5130    -1.3100     2.9760 hc         1 0QK       0.035867
     62 H26          0.5590     0.1360     2.6150 hc         1 0QK       0.035867
     63 H27          0.0540    -1.4650     2.0080 hc         1 0QK       0.035867
     64 H28          1.1110    -2.3260    -0.2200 hc         1 0QK       0.035867
     65 H29          2.7460    -1.7620    -0.6390 hc         1 0QK       0.035867
     66 H30          2.4740    -2.6530     0.8660 hc         1 0QK       0.035867
     67 H31          2.6910     0.3500    -1.5810 h1         1 0QK       0.037700
     68 H32          1.9810     1.9430    -1.3900 h1         1 0QK       0.037700
     69 H33          3.4160     2.1150     0.8010 h1         1 0QK       0.089700
     70 H34          4.7200     2.1650    -2.0210 h1         1 0QK       0.051700
     71 H35          3.4490     3.9640    -1.9460 ho         1 0QK       0.516000
     72 H36          6.7250     2.9080    -0.8150 h1         1 0QK       0.073700
     73 H37          5.0370     4.1660     0.5470 ho         1 0QK       0.524000
     74 H38          6.3000     1.0510     1.2830 h2         1 0QK       0.131700
     75 H39          6.9160     1.2470    -2.4960 h4         1 0QK       0.215000
     76 H40          8.6350    -0.7590    -3.0990 ha         1 0QK       0.200000
     77 H41          9.6820    -2.9300    -2.6190 hn         1 0QK       0.496500
     78 H42         10.1340    -4.1380    -1.4700 hn         1 0QK       0.496500
     79 H11        -10.0120     0.2510    -1.9670 ha         1 0QK       0.111500
     80 CBH        -11.7980    -0.3160     0.0600 c3         1 0QK       0.006300
@<TRIPOS>BOND
     1     1    36 ar  
     2     1    37 ar  
     3     1    39 1   
     4     2     3 ar  
     5     2    33 1   
     6     2    36 ar  
     7     3     4 ar  
     8     3    35 1   
     9     4    37 ar  
    10     4    38 1   
    11     5    40 1   
    12     5    41 1   
    13     5    42 1   
    14     5    80 1   
    15     6    43 1   
    16     6    44 1   
    17     6    45 1   
    18     6    80 1   
    19     7    46 1   
    20     7    47 1   
    21     7    48 1   
    22     7    80 1   
    23     8     9 ar  
    24     8    11 ar  
    25     8    80 1   
    26     9    10 ar  
    27     9    79 1   
    28    10    13 ar  
    29    10    49 1   
    30    11    12 ar  
    31    11    50 1   
    32    12    13 ar  
    33    12    51 1   
    34    13    14 1   
    35    14    15 1   
    36    14    52 1   
    37    15    16 2   
    38    15    17 1   
    39    17    18 1   
    40    17    53 1   
    41    18    19 1   
    42    18    54 1   
    43    18    55 1   
    44    19    20 1   
    45    19    56 1   
    46    19    57 1   
    47    20    21 1   
    48    20    58 1   
    49    20    59 1   
    50    21    22 1   
    51    21    25 1   
    52    22    23 1   
    53    22    24 1   
    54    22    60 1   
    55    23    61 1   
    56    23    62 1   
    57    23    63 1   
    58    24    64 1   
    59    24    65 1   
    60    24    66 1   
    61    25    26 1   
    62    25    67 1   
    63    25    68 1   
    64    26    27 1   
    65    26    28 1   
    66    26    69 1   
    67    27    32 1   
    68    28    29 1   
    69    28    30 1   
    70    28    70 1   
    71    29    71 1   
    72    30    31 1   
    73    30    32 1   
    74    30    72 1   
    75    31    73 1   
    76    32    33 1   
    77    32    74 1   
    78    33    34 1   
    79    34    35 2   
    80    34    75 1   
    81    35    76 1   
    82    38    77 1   
    83    38    78 1   
@<TRIPOS>SUBSTRUCTURE
     1 0QK         1 TEMP              0 ****  ****    0 ROOT
