@<TRIPOS>MOLECULE
0QL
   22    21     1     0     0
SMALL
bcc


@<TRIPOS>ATOM
      1 N            7.0210    -3.1790    37.4880 n8         1 0QL      -0.882800
      2 CA           8.2510    -3.5420    38.1700 c3         1 0QL       0.009500
      3 CB           9.3310    -2.4980    37.8960 c3         1 0QL       0.071700
      4 SG           9.7890    -2.5340    36.1260 ss         1 0QL      -0.217100
      5 SD          10.7280    -0.7330    35.8340 ss         1 0QL      -0.263100
      6 C1           9.3960     0.3150    35.1730 c3         1 0QL       0.017700
      7 C2           8.2400     0.5260    36.1360 c3         1 0QL       0.137800
      8 N3           7.2540     1.4020    35.5260 n8         1 0QL      -0.890800
      9 C            8.1340    -3.7090    39.7170 c          1 0QL       0.910600
     10 O            7.1200    -3.2280    40.2560 o          1 0QL      -0.822300
     11 OXT          9.0850    -4.2910    40.2730 o          1 0QL      -0.822300
     12 H1           6.4290    -3.9980    37.4260 hn         1 0QL       0.330800
     13 H2           6.5170    -2.5450    38.0980 hn         1 0QL       0.330800
     14 H4           8.5950    -4.5020    37.7690 h1         1 0QL       0.051700
     15 H5          10.2220    -2.6980    38.4880 h1         1 0QL       0.066700
     16 H6           8.9660    -1.4990    38.1410 h1         1 0QL       0.066700
     17 H7           9.8930     1.2640    34.9510 h1         1 0QL       0.065200
     18 H8           9.0420    -0.1020    34.2290 h1         1 0QL       0.065200
     19 H9           7.7640    -0.4360    36.3330 h1         1 0QL       0.056200
     20 H10          8.6350     0.8890    37.0950 h1         1 0QL       0.056200
     21 H11          6.4190     1.4210    36.0970 hn         1 0QL       0.330800
     22 H12          7.6030     2.3520    35.5130 hn         1 0QL       0.330800
@<TRIPOS>BOND
     1     1     2 1   
     2     1    12 1   
     3     1    13 1   
     4     2     3 1   
     5     2     9 1   
     6     2    14 1   
     7     3     4 1   
     8     3    15 1   
     9     3    16 1   
    10     4     5 1   
    11     5     6 1   
    12     6     7 1   
    13     6    17 1   
    14     6    18 1   
    15     7     8 1   
    16     7    19 1   
    17     7    20 1   
    18     8    21 1   
    19     8    22 1   
    20     9    10 1   
    21     9    11 1   
@<TRIPOS>SUBSTRUCTURE
     1 0QL         1 TEMP              0 ****  ****    0 ROOT
