@<TRIPOS>MOLECULE
0QN
   48    48     1     0     0
SMALL
abcg2


@<TRIPOS>ATOM
      1 C1          -5.7990    -0.1020     0.4190 c          1 0QN       0.552100
      2 C2          -7.0430     0.4410    -0.3100 c3         1 0QN       0.220000
      3 O           -5.9150    -0.5810     1.5270 o          1 0QN      -0.544100
      4 F1          -8.0920     0.4460     0.4970 f          1 0QN      -0.101000
      5 F2          -6.8490     1.6870    -0.7510 f          1 0QN      -0.101000
      6 F3          -7.3340    -0.3210    -1.3690 f          1 0QN      -0.101000
      7 N           -4.6770    -0.0030    -0.2950 ns         1 0QN      -0.472900
      8 CA          -3.3870    -0.4300     0.1940 c3         1 0QN       0.028700
      9 C           -2.3660     0.6520    -0.1510 c          1 0QN       0.594100
     10 O1          -2.5920     1.5040    -0.9970 o          1 0QN      -0.605100
     11 CB          -2.9570    -1.7970    -0.3830 c3         1 0QN      -0.066700
     12 CG1         -3.9370    -2.8920     0.0190 c3         1 0QN      -0.091600
     13 CG2         -2.7710    -1.7600    -1.8960 c3         1 0QN      -0.091600
     14 N1          -1.2110     0.5460     0.5160 ns         1 0QN      -0.493900
     15 CA1         -0.0840     1.4200     0.3050 c3         1 0QN       0.032700
     16 C3           1.1900     0.6080     0.5200 c          1 0QN       0.598100
     17 O2           1.2130    -0.3510     1.2670 o          1 0QN      -0.576100
     18 CB1         -0.0990     2.6140     1.2620 c3         1 0QN      -0.112100
     19 N2           2.2620     1.0910    -0.1510 ns         1 0QN      -0.139000
     20 C11          3.5880     0.6600    -0.1230 ca         1 0QN       0.007000
     21 C21          4.4970     1.3840    -0.9010 ca         1 0QN      -0.158500
     22 C31          5.8280     1.0290    -0.9460 ca         1 0QN      -0.030000
     23 C4           6.2860    -0.0640    -0.2150 ca         1 0QN      -0.226300
     24 C5           5.3890    -0.7810     0.5610 ca         1 0QN      -0.030000
     25 C6           4.0480    -0.4320     0.6130 ca         1 0QN      -0.158500
     26 C7           7.7370    -0.4140    -0.2530 c3         1 0QN       0.361300
     27 F11          8.4770     0.4400     0.4730 f          1 0QN      -0.114000
     28 F21          7.9840    -1.6380     0.2240 f          1 0QN      -0.114000
     29 F31          8.2290    -0.3720    -1.5000 f          1 0QN      -0.114000
     30 H           -4.6770     0.4960    -1.1740 hn         1 0QN       0.352500
     31 HA          -3.4500    -0.5220     1.2810 h1         1 0QN       0.091700
     32 HB          -1.9920    -2.0330     0.0760 hc         1 0QN       0.056700
     33 HG11        -4.9200    -2.7370    -0.4290 hc         1 0QN       0.042533
     34 HG12        -3.5740    -3.8610    -0.3260 hc         1 0QN       0.042533
     35 HG13        -4.0620    -2.9470     1.1000 hc         1 0QN       0.042533
     36 HG21        -1.9940    -1.0610    -2.2080 hc         1 0QN       0.042533
     37 HG22        -2.4800    -2.7470    -2.2570 hc         1 0QN       0.042533
     38 HG23        -3.6960    -1.4880    -2.4080 hc         1 0QN       0.042533
     39 H1          -1.1250    -0.1390     1.2520 hn         1 0QN       0.341500
     40 HA1         -0.1210     1.7820    -0.7240 h1         1 0QN       0.088700
     41 HB1          0.7580     3.2670     1.0970 hc         1 0QN       0.055367
     42 HB2         -1.0020     3.2010     1.1060 hc         1 0QN       0.055367
     43 HB3         -0.0800     2.2770     2.2980 hc         1 0QN       0.055367
     44 HN2          2.0900     1.8790    -0.7590 hn         1 0QN       0.158000
     45 H2           4.1560     2.2370    -1.4750 ha         1 0QN       0.136000
     46 H3           6.5010     1.6120    -1.5620 ha         1 0QN       0.132500
     47 H5           5.7130    -1.6350     1.1400 ha         1 0QN       0.132500
     48 H6           3.3810    -1.0150     1.2240 ha         1 0QN       0.136000
@<TRIPOS>BOND
     1     1     2 1   
     2     1     3 2   
     3     1     7 1   
     4     2     4 1   
     5     2     5 1   
     6     2     6 1   
     7     7     8 1   
     8     7    30 1   
     9     8     9 1   
    10     8    11 1   
    11     8    31 1   
    12     9    10 2   
    13     9    14 1   
    14    11    12 1   
    15    11    13 1   
    16    11    32 1   
    17    12    33 1   
    18    12    34 1   
    19    12    35 1   
    20    13    36 1   
    21    13    37 1   
    22    13    38 1   
    23    14    15 1   
    24    14    39 1   
    25    15    16 1   
    26    15    18 1   
    27    15    40 1   
    28    16    17 2   
    29    16    19 1   
    30    18    41 1   
    31    18    42 1   
    32    18    43 1   
    33    19    20 1   
    34    19    44 1   
    35    20    21 ar  
    36    20    25 ar  
    37    21    22 ar  
    38    21    45 1   
    39    22    23 ar  
    40    22    46 1   
    41    23    24 ar  
    42    23    26 1   
    43    24    25 ar  
    44    24    47 1   
    45    25    48 1   
    46    26    27 1   
    47    26    28 1   
    48    26    29 1   
@<TRIPOS>SUBSTRUCTURE
     1 0QN         1 TEMP              0 ****  ****    0 ROOT
