@<TRIPOS>MOLECULE
0QN
   48    48     1     0     0
SMALL
No Charge or Current Charge


@<TRIPOS>ATOM
      1 C1          -6.0270    -0.0380     0.5230 c          1 0QN       0.552100
      2 C2          -7.3060     0.5540    -0.1340 c3         1 0QN       0.220000
      3 O           -6.0220    -0.5730     1.6260 o          1 0QN      -0.544100
      4 F1          -8.4040     0.3860     0.6420 f          1 0QN      -0.101000
      5 F2          -7.1740     1.8830    -0.3600 f          1 0QN      -0.101000
      6 F3          -7.5640    -0.0350    -1.3260 f          1 0QN      -0.101000
      7 N           -4.8700     0.0840    -0.2280 ns         1 0QN      -0.472900
      8 CA          -3.5290    -0.4130     0.1670 c3         1 0QN       0.028700
      9 C           -2.4370     0.6190    -0.2460 c          1 0QN       0.594100
     10 O1          -2.6630     1.5740    -0.9790 o          1 0QN      -0.605100
     11 CB          -3.2440    -1.8400    -0.4020 c3         1 0QN      -0.066700
     12 CG1         -4.1720    -2.9190     0.2050 c3         1 0QN      -0.091600
     13 CG2         -3.2750    -1.8910    -1.9500 c3         1 0QN      -0.091600
     14 N1          -1.1780     0.3840     0.2690 ns         1 0QN      -0.493900
     15 CA1          0.0170     1.2230     0.0190 c3         1 0QN       0.032700
     16 C3           1.3210     0.4100     0.2760 c          1 0QN       0.598100
     17 O2           1.3000    -0.7020     0.7980 o          1 0QN      -0.576100
     18 CB1         -0.0420     2.5160     0.8700 c3         1 0QN      -0.112100
     19 N2           2.4800     1.0520    -0.1450 ns         1 0QN      -0.139000
     20 C11          3.8530     0.6850    -0.0920 ca         1 0QN       0.007000
     21 C21          4.7820     1.5530    -0.6930 ca         1 0QN      -0.158500
     22 C31          6.1560     1.2610    -0.6810 ca         1 0QN      -0.030000
     23 C4           6.6300     0.0850    -0.0640 ca         1 0QN      -0.226300
     24 C5           5.7020    -0.7800     0.5520 ca         1 0QN      -0.030000
     25 C6           4.3280    -0.4850     0.5370 ca         1 0QN      -0.158500
     26 C7           8.1290    -0.2320    -0.0380 c3         1 0QN       0.361300
     27 F11          8.7220     0.2900     1.0590 f          1 0QN      -0.114000
     28 F21          8.3730    -1.5630    -0.0230 f          1 0QN      -0.114000
     29 F31          8.7800     0.2660    -1.1140 f          1 0QN      -0.114000
     30 H           -4.9500     0.5820    -1.1100 hn         1 0QN       0.352500
     31 HA          -3.4850    -0.4640     1.2630 h1         1 0QN       0.091700
     32 HB          -2.2260    -2.1150    -0.0980 hc         1 0QN       0.056700
     33 HG11        -5.2110    -2.7740    -0.1140 hc         1 0QN       0.042533
     34 HG12        -3.8590    -3.9210    -0.1140 hc         1 0QN       0.042533
     35 HG13        -4.1390    -2.8900     1.3010 hc         1 0QN       0.042533
     36 HG21        -2.5640    -1.1790    -2.3840 hc         1 0QN       0.042533
     37 HG22        -3.0030    -2.8920    -2.3070 hc         1 0QN       0.042533
     38 HG23        -4.2750    -1.6570    -2.3350 hc         1 0QN       0.042533
     39 H1          -1.0670    -0.4400     0.8520 hn         1 0QN       0.341500
     40 HA1          0.0270     1.5040    -1.0430 h1         1 0QN       0.088700
     41 HB1          0.8140     3.1670     0.6570 hc         1 0QN       0.055367
     42 HB2         -0.9540     3.0840     0.6540 hc         1 0QN       0.055367
     43 HB3         -0.0340     2.2760     1.9400 hc         1 0QN       0.055367
     44 HN2          2.3180     1.9570    -0.5680 hn         1 0QN       0.158000
     45 H2           4.4400     2.4650    -1.1780 ha         1 0QN       0.136000
     46 H3           6.8500     1.9570    -1.1510 ha         1 0QN       0.132500
     47 H5           6.0420    -1.6870     1.0500 ha         1 0QN       0.132500
     48 H6           3.6530    -1.1790     1.0270 ha         1 0QN       0.136000
@<TRIPOS>BOND
     1     1     2 1   
     2     1     3 2   
     3     1     7 1   
     4     2     4 1   
     5     2     5 1   
     6     2     6 1   
     7     7     8 1   
     8     7    30 1   
     9     8     9 1   
    10     8    11 1   
    11     8    31 1   
    12     9    10 2   
    13     9    14 1   
    14    11    12 1   
    15    11    13 1   
    16    11    32 1   
    17    12    33 1   
    18    12    34 1   
    19    12    35 1   
    20    13    36 1   
    21    13    37 1   
    22    13    38 1   
    23    14    15 1   
    24    14    39 1   
    25    15    16 1   
    26    15    18 1   
    27    15    40 1   
    28    16    17 2   
    29    16    19 1   
    30    18    41 1   
    31    18    42 1   
    32    18    43 1   
    33    19    20 1   
    34    19    44 1   
    35    20    21 ar  
    36    20    25 ar  
    37    21    22 ar  
    38    21    45 1   
    39    22    23 ar  
    40    22    46 1   
    41    23    24 ar  
    42    23    26 1   
    43    24    25 ar  
    44    24    47 1   
    45    25    48 1   
    46    26    27 1   
    47    26    28 1   
    48    26    29 1   
@<TRIPOS>SUBSTRUCTURE
     1 0QN         1 TEMP              0 ****  ****    0 ROOT
