@<TRIPOS>MOLECULE
0QQ
   50    53     1     0     0
SMALL
No Charge or Current Charge


@<TRIPOS>ATOM
      1 C11         21.4480    42.1660    -3.1890 ca         1 0QQ       0.277500
      2 C13         19.8740    42.6510    -1.5180 ca         1 0QQ       0.344900
      3 C14         20.8380    43.2910    -0.7170 ca         1 0QQ       0.018100
      4 C02         15.9180    39.9250    -7.2010 c2         1 0QQ       0.709100
      5 N03         16.6270    38.8680    -7.2640 n2         1 0QQ      -0.699900
      6 C04         17.5950    38.6040    -8.3660 c6         1 0QQ       0.214500
      7 C05         19.0340    39.1040    -7.9880 ca         1 0QQ      -0.096300
      8 C06         19.2840    39.7970    -6.7720 ca         1 0QQ      -0.127000
      9 C07         20.5680    40.2630    -6.4270 ca         1 0QQ      -0.026000
     10 N08         20.7040    40.9460    -5.1850 ns         1 0QQ      -0.129000
     11 C09         21.7870    41.5420    -4.5460 c          1 0QQ       0.517600
     12 O10         22.9220    41.5730    -5.0200 o          1 0QQ      -0.587100
     13 N12         20.1620    42.0980    -2.7240 nb         1 0QQ      -0.674000
     14 O15         20.5000    43.8220     0.5170 os         1 0QQ      -0.324100
     15 C16         21.5840    44.1710     1.4080 c6         1 0QQ       0.117600
     16 C17         22.7130    44.8680     0.6160 c6         1 0QQ       0.119600
     17 O18         23.1410    44.0240    -0.4780 os         1 0QQ      -0.324100
     18 C19         22.1590    43.3810    -1.2050 ca         1 0QQ       0.087100
     19 C20         22.4660    42.8040    -2.4440 ca         1 0QQ      -0.098000
     20 C21         21.6410    40.0350    -7.3100 ca         1 0QQ      -0.109000
     21 C22         21.4220    39.3510    -8.5140 ca         1 0QQ      -0.120000
     22 C23         20.1410    38.8910    -8.8510 ca         1 0QQ       0.133000
     23 F24         20.0040    38.2410   -10.0270 f          1 0QQ      -0.189000
     24 C25         17.6190    37.0460    -8.4640 c3         1 0QQ      -0.072100
     25 C26         17.1310    39.2170    -9.7400 c6         1 0QQ       0.160300
     26 F27         15.8520    38.7120   -10.0820 f          1 0QQ      -0.253000
     27 C28         17.0460    40.7580    -9.6470 c6         1 0QQ       0.067300
     28 S29         15.8710    41.2940    -8.3320 ss         1 0QQ      -0.399200
     29 C30         16.6610    41.4280   -10.9910 c3         1 0QQ      -0.079100
     30 H1          18.8410    42.5670    -1.1810 h4         1 0QQ       0.038100
     31 H2          14.9200    41.1400    -6.0140 hn         1 0QQ       0.476000
     32 H3          15.3150    39.6130    -5.3550 hn         1 0QQ       0.476000
     33 H4          18.4810    39.9870    -6.0660 ha         1 0QQ       0.128000
     34 H5          19.8440    41.0140    -4.6550 hn         1 0QQ       0.183000
     35 H6          21.9750    43.2550     1.8730 h1         1 0QQ       0.076200
     36 H7          21.2060    44.8280     2.2040 h1         1 0QQ       0.076200
     37 H8          23.5710    45.0820     1.2680 h1         1 0QQ       0.077200
     38 H9          22.3420    45.8190     0.2100 h1         1 0QQ       0.077200
     39 H10         23.4800    42.8570    -2.8290 ha         1 0QQ       0.163000
     40 H11         22.6480    40.3740    -7.0860 ha         1 0QQ       0.155000
     41 H12         22.2510    39.1740    -9.1940 ha         1 0QQ       0.136000
     42 H13         18.0380    36.6000    -7.5540 hc         1 0QQ       0.054033
     43 H14         16.6110    36.6350    -8.5940 hc         1 0QQ       0.054033
     44 H15         18.2160    36.6880    -9.3090 hc         1 0QQ       0.054033
     45 H16         17.8090    38.9310   -10.5530 h1         1 0QQ       0.084700
     46 H17         18.0370    41.1400    -9.3600 h1         1 0QQ       0.085700
     47 H18         16.6670    42.5210   -10.9000 hc         1 0QQ       0.053700
     48 H19         17.3690    41.1590   -11.7840 hc         1 0QQ       0.053700
     49 H20         15.6590    41.1270   -11.3180 hc         1 0QQ       0.053700
     50 N01         15.0800    40.1550    -6.1760 nv         1 0QQ      -1.016200
@<TRIPOS>BOND
     1     1    11 1   
     2     1    13 ar  
     3     1    19 ar  
     4     2     3 ar  
     5     2    13 ar  
     6     2    30 1   
     7     3    14 1   
     8     3    18 ar  
     9     4     5 2   
    10     4    28 1   
    11     4    50 1   
    12     5     6 1   
    13     6     7 1   
    14     6    24 1   
    15     6    25 1   
    16     7     8 ar  
    17     7    22 ar  
    18     8     9 ar  
    19     8    33 1   
    20     9    10 1   
    21     9    20 ar  
    22    10    11 1   
    23    10    34 1   
    24    11    12 2   
    25    14    15 1   
    26    15    16 1   
    27    15    35 1   
    28    15    36 1   
    29    16    17 1   
    30    16    37 1   
    31    16    38 1   
    32    17    18 1   
    33    18    19 ar  
    34    19    39 1   
    35    20    21 ar  
    36    20    40 1   
    37    21    22 ar  
    38    21    41 1   
    39    22    23 1   
    40    24    42 1   
    41    24    43 1   
    42    24    44 1   
    43    25    26 1   
    44    25    27 1   
    45    25    45 1   
    46    27    28 1   
    47    27    29 1   
    48    27    46 1   
    49    29    47 1   
    50    29    48 1   
    51    29    49 1   
    52    31    50 1   
    53    32    50 1   
@<TRIPOS>SUBSTRUCTURE
     1 0QQ         1 TEMP              0 ****  ****    0 ROOT
