@<TRIPOS>MOLECULE
0QQ
   50    53     1     0     0
SMALL
abcg2


@<TRIPOS>ATOM
      1 C11         21.4120    42.1490    -3.2710 ca         1 0QQ       0.277500
      2 C13         19.8700    42.5700    -1.6310 ca         1 0QQ       0.344900
      3 C14         20.8070    43.2440    -0.8520 ca         1 0QQ       0.018100
      4 C02         16.0280    39.9670    -7.1000 c2         1 0QQ       0.709100
      5 N03         16.7020    38.8920    -7.2090 n2         1 0QQ      -0.699900
      6 C04         17.6260    38.6230    -8.3010 c6         1 0QQ       0.214500
      7 C05         19.0450    39.0890    -7.9300 ca         1 0QQ      -0.096300
      8 C06         19.2820    39.7880    -6.7520 ca         1 0QQ      -0.127000
      9 C07         20.5540    40.2390    -6.3880 ca         1 0QQ      -0.026000
     10 N08         20.6540    40.9260    -5.1720 ns         1 0QQ      -0.129000
     11 C09         21.7270    41.5220    -4.5990 c          1 0QQ       0.517600
     12 O10         22.8560    41.5650    -5.0830 o          1 0QQ      -0.587100
     13 N12         20.1570    42.0380    -2.8120 nb         1 0QQ      -0.674000
     14 O15         20.4320    43.7420     0.3520 os         1 0QQ      -0.324100
     15 C16         21.5400    44.0890     1.2050 c6         1 0QQ       0.117600
     16 C17         22.5770    44.8550     0.4230 c6         1 0QQ       0.119600
     17 O18         23.0690    44.0560    -0.6730 os         1 0QQ      -0.324100
     18 C19         22.1100    43.3870    -1.3510 ca         1 0QQ       0.087100
     19 C20         22.4130    42.8130    -2.5780 ca         1 0QQ      -0.098000
     20 C21         21.6390    39.9890    -7.2300 ca         1 0QQ      -0.109000
     21 C22         21.4250    39.2910    -8.4110 ca         1 0QQ      -0.120000
     22 C23         20.1570    38.8570    -8.7380 ca         1 0QQ       0.133000
     23 F24         20.0170    38.1870    -9.9170 f          1 0QQ      -0.189000
     24 C25         17.6080    37.0980    -8.5080 c3         1 0QQ      -0.072100
     25 C26         17.2190    39.3310    -9.6080 c6         1 0QQ       0.160300
     26 F27         15.9570    38.8470   -10.0090 f          1 0QQ      -0.253000
     27 C28         17.1700    40.8400    -9.5080 c6         1 0QQ       0.067300
     28 S29         16.0170    41.3810    -8.1890 ss         1 0QQ      -0.399200
     29 C30         16.7660    41.5160   -10.8120 c3         1 0QQ      -0.079100
     30 H1          18.8560    42.4670    -1.2590 h4         1 0QQ       0.038100
     31 H2          14.8750    41.0630    -5.8060 hn         1 0QQ       0.476000
     32 H3          15.2520    39.4830    -5.3010 hn         1 0QQ       0.476000
     33 H4          18.4510    39.9870    -6.0910 ha         1 0QQ       0.128000
     34 H5          19.8070    41.0080    -4.6200 hn         1 0QQ       0.183000
     35 H6          21.9660    43.1710     1.6190 h1         1 0QQ       0.076200
     36 H7          21.1310    44.6970     2.0080 h1         1 0QQ       0.076200
     37 H8          23.4400    45.0870     1.0430 h1         1 0QQ       0.077200
     38 H9          22.1540    45.7780     0.0190 h1         1 0QQ       0.077200
     39 H10         23.4100    42.8940    -2.9870 ha         1 0QQ       0.163000
     40 H11         22.6250    40.3330    -6.9680 ha         1 0QQ       0.155000
     41 H12         22.2450    39.0820    -9.0860 ha         1 0QQ       0.136000
     42 H13         17.9480    36.6120    -7.5930 hc         1 0QQ       0.054033
     43 H14         16.5900    36.7730    -8.7150 hc         1 0QQ       0.054033
     44 H15         18.2510    36.7930    -9.3310 hc         1 0QQ       0.054033
     45 H16         17.9130    39.0630   -10.4040 h1         1 0QQ       0.084700
     46 H17         18.1670    41.1750    -9.2230 h1         1 0QQ       0.085700
     47 H18         16.7350    42.6000   -10.6900 hc         1 0QQ       0.053700
     48 H19         17.5010    41.2810   -11.5830 hc         1 0QQ       0.053700
     49 H20         15.7850    41.1770   -11.1440 hc         1 0QQ       0.053700
     50 N01         15.1350    40.1250    -6.0710 nv         1 0QQ      -1.016200
@<TRIPOS>BOND
     1     1    11 1   
     2     1    13 ar  
     3     1    19 ar  
     4     2     3 ar  
     5     2    13 ar  
     6     2    30 1   
     7     3    14 1   
     8     3    18 ar  
     9     4     5 2   
    10     4    28 1   
    11     4    50 1   
    12     5     6 1   
    13     6     7 1   
    14     6    24 1   
    15     6    25 1   
    16     7     8 ar  
    17     7    22 ar  
    18     8     9 ar  
    19     8    33 1   
    20     9    10 1   
    21     9    20 ar  
    22    10    11 1   
    23    10    34 1   
    24    11    12 2   
    25    14    15 1   
    26    15    16 1   
    27    15    35 1   
    28    15    36 1   
    29    16    17 1   
    30    16    37 1   
    31    16    38 1   
    32    17    18 1   
    33    18    19 ar  
    34    19    39 1   
    35    20    21 ar  
    36    20    40 1   
    37    21    22 ar  
    38    21    41 1   
    39    22    23 1   
    40    24    42 1   
    41    24    43 1   
    42    24    44 1   
    43    25    26 1   
    44    25    27 1   
    45    25    45 1   
    46    27    28 1   
    47    27    29 1   
    48    27    46 1   
    49    29    47 1   
    50    29    48 1   
    51    29    49 1   
    52    31    50 1   
    53    32    50 1   
@<TRIPOS>SUBSTRUCTURE
     1 0QQ         1 TEMP              0 ****  ****    0 ROOT
