@<TRIPOS>MOLECULE
0QR
   28    29     1     0     0
SMALL
No Charge or Current Charge


@<TRIPOS>ATOM
      1 CAD         -1.3420     0.5320     0.8700 ca         1 0QR       0.023500
      2 CAE         -2.1980     1.5270     0.3680 ca         1 0QR      -0.180000
      3 CAF         -2.9150     1.3020    -0.8160 ca         1 0QR       0.227000
      4 FAG         -3.7360     2.2620    -1.2950 f          1 0QR      -0.171000
      5 CAH         -2.7830     0.0890    -1.5060 ca         1 0QR      -0.180000
      6 CAI         -1.9290    -0.9120    -1.0130 ca         1 0QR       0.023500
      7 CAC         -1.2080    -0.6910     0.1800 ca         1 0QR      -0.307500
      8 SAB         -0.0960    -1.9540     0.8080 sy         1 0QR       1.198600
      9 OAA          0.1670    -1.7550     2.2370 o          1 0QR      -0.530500
     10 OAR         -0.4730    -3.2560     0.2570 o          1 0QR      -0.530500
     11 NA2          1.3540    -1.6610     0.0520 nu         1 0QR      -0.886000
     12 CAK          1.8670    -0.4280    -0.1740 ca         1 0QR       0.664900
     13 NA3          2.1630     0.2840     0.9150 nb         1 0QR      -0.825000
     14 CAQ          2.1050     0.0130    -1.4830 ca         1 0QR      -0.267000
     15 CAP          2.6560     1.2870    -1.6830 ca         1 0QR       0.002000
     16 CAO          2.9500     2.0410    -0.5400 ca         1 0QR      -0.276000
     17 CAM          2.6870     1.4730     0.7040 ca         1 0QR       0.678900
     18 NA1          2.9170     2.0820     1.8590 nv         1 0QR      -1.095900
     19 H1          -0.7830     0.7170     1.7860 ha         1 0QR       0.138500
     20 H2          -2.3050     2.4710     0.8940 ha         1 0QR       0.136000
     21 H3          -3.3420    -0.0740    -2.4240 ha         1 0QR       0.136000
     22 H4          -1.8320    -1.8500    -1.5590 ha         1 0QR       0.138500
     23 H5           1.2820    -2.2160    -0.7820 hn         1 0QR       0.516000
     24 H6           1.8590    -0.6160    -2.3330 ha         1 0QR       0.129000
     25 H7           2.8480     1.6730    -2.6830 ha         1 0QR       0.116000
     26 H8           3.3800     3.0350    -0.6200 ha         1 0QR       0.124000
     27 H9           2.4540     1.6270     2.6340 hn         1 0QR       0.498500
     28 H10          2.8870     3.0940     1.8550 hn         1 0QR       0.498500
@<TRIPOS>BOND
     1     1     2 ar  
     2     1     7 ar  
     3     1    19 1   
     4     2     3 ar  
     5     2    20 1   
     6     3     4 1   
     7     3     5 ar  
     8     5     6 ar  
     9     5    21 1   
    10     6     7 ar  
    11     6    22 1   
    12     7     8 1   
    13     8     9 2   
    14     8    10 2   
    15     8    11 1   
    16    11    12 1   
    17    11    23 1   
    18    12    13 ar  
    19    12    14 ar  
    20    13    17 ar  
    21    14    15 ar  
    22    14    24 1   
    23    15    16 ar  
    24    15    25 1   
    25    16    17 ar  
    26    16    26 1   
    27    17    18 1   
    28    18    27 1   
    29    18    28 1   
@<TRIPOS>SUBSTRUCTURE
     1 0QR         1 TEMP              0 ****  ****    0 ROOT
