@<TRIPOS>MOLECULE
0QR
   28    29     1     0     0
SMALL
abcg2


@<TRIPOS>ATOM
      1 CAD         -1.4350     0.4110     1.1450 ca         1 0QR       0.023500
      2 CAE         -2.3620     1.3980     0.8530 ca         1 0QR      -0.180000
      3 CAF         -3.0790     1.3050    -0.3250 ca         1 0QR       0.227000
      4 FAG         -3.9700     2.2580    -0.6130 f          1 0QR      -0.171000
      5 CAH         -2.9120     0.2620    -1.2190 ca         1 0QR      -0.180000
      6 CAI         -1.9900    -0.7260    -0.9180 ca         1 0QR       0.023500
      7 CAC         -1.2570    -0.6410     0.2590 ca         1 0QR      -0.307500
      8 SAB         -0.0860    -1.9140     0.6160 sy         1 0QR       1.198600
      9 OAA          0.3370    -1.7870     1.9950 o          1 0QR      -0.530500
     10 OAR         -0.6250    -3.1820     0.1530 o          1 0QR      -0.530500
     11 NA2          1.1960    -1.6430    -0.4000 nu         1 0QR      -0.886000
     12 CAK          1.9090    -0.4510    -0.4880 ca         1 0QR       0.664900
     13 NA3          1.6700     0.4460     0.4490 nb         1 0QR      -0.825000
     14 CAQ          2.8090    -0.2760    -1.5320 ca         1 0QR      -0.267000
     15 CAP          3.4890     0.9360    -1.5630 ca         1 0QR       0.002000
     16 CAO          3.2600     1.8980    -0.6020 ca         1 0QR      -0.276000
     17 CAM          2.3220     1.6100     0.4060 ca         1 0QR       0.678900
     18 NA1          2.0380     2.5000     1.3770 nv         1 0QR      -1.095900
     19 H1          -0.8580     0.4700     2.0560 ha         1 0QR       0.138500
     20 H2          -2.5190     2.2260     1.5310 ha         1 0QR       0.136000
     21 H3          -3.4930     0.2190    -2.1300 ha         1 0QR       0.136000
     22 H4          -1.8550    -1.5490    -1.6070 ha         1 0QR       0.138500
     23 H5           1.2370    -2.2780    -1.1870 hn         1 0QR       0.516000
     24 H6           2.9690    -1.0400    -2.2810 ha         1 0QR       0.129000
     25 H7           4.2030     1.1270    -2.3530 ha         1 0QR       0.116000
     26 H8           3.7800     2.8460    -0.6160 ha         1 0QR       0.124000
     27 H9           1.3740     2.2720     2.0940 hn         1 0QR       0.498500
     28 H10          2.4800     3.4000     1.4070 hn         1 0QR       0.498500
@<TRIPOS>BOND
     1     1     2 ar  
     2     1     7 ar  
     3     1    19 1   
     4     2     3 ar  
     5     2    20 1   
     6     3     4 1   
     7     3     5 ar  
     8     5     6 ar  
     9     5    21 1   
    10     6     7 ar  
    11     6    22 1   
    12     7     8 1   
    13     8     9 2   
    14     8    10 2   
    15     8    11 1   
    16    11    12 1   
    17    11    23 1   
    18    12    13 ar  
    19    12    14 ar  
    20    13    17 ar  
    21    14    15 ar  
    22    14    24 1   
    23    15    16 ar  
    24    15    25 1   
    25    16    17 ar  
    26    16    26 1   
    27    17    18 1   
    28    18    27 1   
    29    18    28 1   
@<TRIPOS>SUBSTRUCTURE
     1 0QR         1 TEMP              0 ****  ****    0 ROOT
