@<TRIPOS>MOLECULE
0QS
  110   113     1     0     0
SMALL
No Charge or Current Charge


@<TRIPOS>ATOM
      1 S           -6.8010     1.6940     1.0420 s6         1 0QS       1.210100
      2 O1S         -6.3280     2.0890     2.3710 o          1 0QS      -0.508000
      3 O2S         -8.2170     1.3810     0.8400 o          1 0QS      -0.508000
      4 C           -6.2470     2.9520    -0.2000 c3         1 0QS      -0.280000
      5 C1          -6.4660     2.4270    -1.6500 c3         1 0QS      -0.076433
      6 C2          -7.1150     4.2280     0.0040 c3         1 0QS      -0.076433
      7 C3          -4.7530     3.3450    -0.0030 c3         1 0QS      -0.076433
      8 N3          -5.9820     0.2930     0.6430 n7         1 0QS      -0.928300
      9 CA          -4.5470     0.0980     1.0370 c3         1 0QS       0.185500
     10 CB          -4.4480    -1.1140     1.9980 c3         1 0QS      -0.029100
     11 CG          -5.1080    -0.8750     3.3540 ca         1 0QS      -0.103300
     12 CD1         -6.4100    -1.3490     3.6080 ca         1 0QS      -0.098500
     13 CD2         -4.4170    -0.1780     4.3650 ca         1 0QS      -0.098500
     14 CE1         -7.0160    -1.1270     4.8570 ca         1 0QS      -0.099500
     15 CE2         -5.0220     0.0430     5.6150 ca         1 0QS      -0.099500
     16 CZ          -6.3220    -0.4310     5.8610 ca         1 0QS      -0.091000
     17 C4          -3.6100    -0.1270    -0.1990 c          1 0QS       0.580100
     18 O           -4.0280    -0.5500    -1.2700 o          1 0QS      -0.608100
     19 N           -2.2880     0.2340    -0.0220 ns         1 0QS      -0.504900
     20 CA1         -1.2180     0.0880    -1.0400 c3         1 0QS       0.025700
     21 C5           0.0180    -0.6060    -0.4040 c          1 0QS       0.592100
     22 O1           0.1950    -0.6890     0.8030 o          1 0QS      -0.583100
     23 CB1         -0.8390     1.4630    -1.6510 c3         1 0QS      -0.041100
     24 CG1         -1.9360     2.1260    -2.4490 cc         1 0QS      -0.108300
     25 ND1         -2.1610     3.5080    -2.4630 na         1 0QS      -0.120700
     26 CD21        -2.8490     1.5480    -3.3120 cd         1 0QS      -0.147000
     27 CE11        -3.2140     3.7840    -3.3210 cc         1 0QS      -0.055300
     28 NE2         -3.6100     2.5750    -3.8280 na         1 0QS      -0.059000
     29 N1           0.9350    -1.1300    -1.2900 ns         1 0QS      -0.479900
     30 CA2          2.0720    -2.0090    -0.9190 c3         1 0QS       0.047700
     31 CB2          2.3910    -2.9430    -2.1320 c3         1 0QS      -0.087400
     32 CG2          1.3550    -4.0720    -2.4800 c6         1 0QS      -0.058700
     33 CD11         1.9580    -5.0110    -3.5680 c6         1 0QS      -0.070400
     34 CD22        -0.0470    -3.5620    -2.9370 c6         1 0QS      -0.070400
     35 CE12         1.0050    -6.1730    -3.9340 c6         1 0QS      -0.073400
     36 CE21        -0.9940    -4.7260    -3.3230 c6         1 0QS      -0.073400
     37 CZ1         -0.3670    -5.6370    -4.4030 c6         1 0QS      -0.075400
     38 CH           3.2960    -1.1710    -0.3450 c3         1 0QS       0.366000
     39 OH1          3.6080    -0.1280    -1.2550 oh         1 0QS      -0.652500
     40 OH2          2.8600    -0.5040     0.8260 oh         1 0QS      -0.652500
     41 CM1          4.5980    -1.9860     0.0150 c3         1 0QS       0.036000
     42 F1           4.2390    -3.1450     0.6260 f          1 0QS      -0.098500
     43 F2           5.2610    -2.3410    -1.1150 f          1 0QS      -0.098500
     44 C6           5.5910    -1.1990     0.9180 c          1 0QS       0.582100
     45 O2           6.1880    -1.7160     1.8570 o          1 0QS      -0.554100
     46 O11         11.5240     2.5300     3.0480 os         1 0QS      -0.444000
     47 C21         11.5730     2.5300     1.6010 c6         1 0QS       0.153600
     48 C31         10.5700     1.4860     1.0270 c6         1 0QS       0.127800
     49 N4           9.1780     1.7150     1.5280 n3         1 0QS      -0.727600
     50 C51          9.1680     1.7920     3.0260 c6         1 0QS       0.127800
     51 C61         10.2030     2.8270     3.5600 c6         1 0QS       0.153600
     52 C7           8.2090     0.7340     0.9690 c3         1 0QS       0.149800
     53 C8           6.7200     1.0400     1.2710 c3         1 0QS       0.101000
     54 N2           5.7980     0.1260     0.5860 ns         1 0QS      -0.481900
     55 H11         -7.5060     2.1150    -1.8080 hc         1 0QS       0.045811
     56 H12         -6.2440     3.2140    -2.3810 hc         1 0QS       0.045811
     57 H13         -5.8140     1.5770    -1.8800 hc         1 0QS       0.045811
     58 H21         -6.9900     4.6340     1.0160 hc         1 0QS       0.045811
     59 H22         -6.8330     5.0150    -0.7070 hc         1 0QS       0.045811
     60 H23         -8.1810     4.0140    -0.1450 hc         1 0QS       0.045811
     61 H31         -4.0770     2.5310    -0.2780 hc         1 0QS       0.045811
     62 H32         -4.4940     4.2010    -0.6380 hc         1 0QS       0.045811
     63 H33         -4.5460     3.6320     1.0350 hc         1 0QS       0.045811
     64 HM2         -6.0170     0.3420    -0.3750 hn         1 0QS       0.520000
     65 HA          -4.1530     0.9780     1.5640 h1         1 0QS       0.084700
     66 HB1         -4.8850    -1.9940     1.5100 hc         1 0QS       0.064700
     67 HB2         -3.3900    -1.3580     2.1550 hc         1 0QS       0.064700
     68 HD1         -6.9560    -1.8830     2.8330 ha         1 0QS       0.107500
     69 HD2         -3.4110     0.1940     4.1840 ha         1 0QS       0.107500
     70 HE1         -8.0230    -1.4930     5.0450 ha         1 0QS       0.120000
     71 HE2         -4.4840     0.5830     6.3910 ha         1 0QS       0.120000
     72 HZ          -6.7910    -0.2580     6.8270 ha         1 0QS       0.121000
     73 H           -2.0180     0.5530     0.9030 hn         1 0QS       0.342500
     74 HA1         -1.5670    -0.5770    -1.8420 h1         1 0QS       0.095700
     75 HB21        -0.5090     2.1290    -0.8430 hc         1 0QS       0.099200
     76 HB3          0.0300     1.3380    -2.3090 hc         1 0QS       0.099200
     77 HD11        -1.6320     4.2010    -1.9400 hn         1 0QS       0.413000
     78 HD21        -2.9990     0.5080    -3.5890 h4         1 0QS       0.225000
     79 HE11        -3.6290     4.7610    -3.5570 h5         1 0QS       0.237000
     80 HE21        -4.3590     2.4520    -4.5050 hn         1 0QS       0.415000
     81 H1           0.6990    -1.0530    -2.2750 hn         1 0QS       0.319500
     82 HA2          1.7370    -2.6690    -0.1050 h1         1 0QS       0.109700
     83 HB22         2.5880    -2.3250    -3.0170 hc         1 0QS       0.058200
     84 HB31         3.3280    -3.4640    -1.9250 hc         1 0QS       0.058200
     85 HG           1.2230    -4.6600    -1.5600 hc         1 0QS       0.057700
     86 HD12         2.1890    -4.4300    -4.4720 hc         1 0QS       0.034950
     87 HD13         2.9120    -5.4280    -3.2180 hc         1 0QS       0.034950
     88 HD23        -0.5360    -3.0040    -2.1300 hc         1 0QS       0.034950
     89 HD22         0.0610    -2.8750    -3.7870 hc         1 0QS       0.034950
     90 HE12         1.4540    -6.7880    -4.7250 hc         1 0QS       0.044450
     91 HE13         0.8700    -6.8310    -3.0650 hc         1 0QS       0.044450
     92 HE23        -1.2290    -5.3220    -2.4300 hc         1 0QS       0.044450
     93 HE22        -1.9490    -4.3230    -3.6860 hc         1 0QS       0.044450
     94 HZ2         -0.2470    -5.0760    -5.3400 hc         1 0QS       0.046200
     95 HZ3         -1.0410    -6.4760    -4.6230 hc         1 0QS       0.046200
     96 HH1          2.7730     0.0760    -1.7230 ho         1 0QS       0.486500
     97 HH2          1.8700    -0.5650     0.8350 ho         1 0QS       0.486500
     98 H221        12.5940     2.2880     1.2750 h1         1 0QS       0.051950
     99 H311        10.5950     1.5420    -0.0710 h1         1 0QS       0.043700
    100 H321        10.9150     0.4790     1.3050 h1         1 0QS       0.043700
    101 H51          8.1740     2.0830     3.3950 h1         1 0QS       0.043700
    102 H52          9.3980     0.8080     3.4610 h1         1 0QS       0.043700
    103 H61         10.2280     2.7990     4.6590 h1         1 0QS       0.051950
    104 H62          9.9140     3.8420     3.2500 h1         1 0QS       0.051950
    105 H1'1         8.3200     0.7040    -0.1240 h1         1 0QS       0.043200
    106 H1'2         8.4440    -0.2730     1.3390 h1         1 0QS       0.043200
    107 H2'1         6.5370     0.9740     2.3510 h1         1 0QS       0.063700
    108 H2'2         6.4930     2.0650     0.9510 h1         1 0QS       0.063700
    109 HN21         5.2220     0.4790    -0.1740 hn         1 0QS       0.327500
    110 H211        11.3240     3.5350     1.2290 h1         1 0QS       0.051950
@<TRIPOS>BOND
     1     1     2 2   
     2     1     3 2   
     3     1     4 1   
     4     1     8 1   
     5     4     5 1   
     6     4     6 1   
     7     4     7 1   
     8     5    55 1   
     9     5    56 1   
    10     5    57 1   
    11     6    58 1   
    12     6    59 1   
    13     6    60 1   
    14     7    61 1   
    15     7    62 1   
    16     7    63 1   
    17     8     9 1   
    18     8    64 1   
    19     9    10 1   
    20     9    17 1   
    21     9    65 1   
    22    10    11 1   
    23    10    66 1   
    24    10    67 1   
    25    11    12 ar  
    26    11    13 ar  
    27    12    14 ar  
    28    12    68 1   
    29    13    15 ar  
    30    13    69 1   
    31    14    16 ar  
    32    14    70 1   
    33    15    16 ar  
    34    15    71 1   
    35    16    72 1   
    36    17    18 2   
    37    17    19 1   
    38    19    20 1   
    39    19    73 1   
    40    20    21 1   
    41    20    23 1   
    42    20    74 1   
    43    21    22 2   
    44    21    29 1   
    45    23    24 1   
    46    23    75 1   
    47    23    76 1   
    48    24    25 1   
    49    24    26 2   
    50    25    27 2   
    51    25    77 1   
    52    26    28 1   
    53    26    78 1   
    54    27    28 1   
    55    27    79 1   
    56    28    80 1   
    57    29    30 1   
    58    29    81 1   
    59    30    31 1   
    60    30    38 1   
    61    30    82 1   
    62    31    32 1   
    63    31    83 1   
    64    31    84 1   
    65    32    33 1   
    66    32    34 1   
    67    32    85 1   
    68    33    35 1   
    69    33    86 1   
    70    33    87 1   
    71    34    36 1   
    72    34    88 1   
    73    34    89 1   
    74    35    37 1   
    75    35    90 1   
    76    35    91 1   
    77    36    37 1   
    78    36    92 1   
    79    36    93 1   
    80    37    94 1   
    81    37    95 1   
    82    38    39 1   
    83    38    40 1   
    84    38    41 1   
    85    39    96 1   
    86    40    97 1   
    87    41    42 1   
    88    41    43 1   
    89    41    44 1   
    90    44    45 2   
    91    44    54 1   
    92    46    47 1   
    93    46    51 1   
    94    47    48 1   
    95    47    98 1   
    96    47   110 1   
    97    48    49 1   
    98    48    99 1   
    99    48   100 1   
   100    49    50 1   
   101    49    52 1   
   102    50    51 1   
   103    50   101 1   
   104    50   102 1   
   105    51   103 1   
   106    51   104 1   
   107    52    53 1   
   108    52   105 1   
   109    52   106 1   
   110    53    54 1   
   111    53   107 1   
   112    53   108 1   
   113    54   109 1   
@<TRIPOS>SUBSTRUCTURE
     1 0QS         1 TEMP              0 ****  ****    0 ROOT
