@<TRIPOS>MOLECULE
0QS
  110   113     1     0     0
SMALL
bcc


@<TRIPOS>ATOM
      1 S           -6.7990     1.4630     0.6110 s6         1 0QS       1.240900
      2 O1S         -6.5640     1.6320     2.0380 o          1 0QS      -0.578800
      3 O2S         -8.1370     1.1380     0.1360 o          1 0QS      -0.578800
      4 C           -6.2690     2.9990    -0.2290 c3         1 0QS      -0.169200
      5 C1          -6.2530     2.7500    -1.7320 c3         1 0QS      -0.076433
      6 C2          -7.2930     4.0730     0.1350 c3         1 0QS      -0.076433
      7 C3          -4.8860     3.3860     0.2820 c3         1 0QS      -0.076433
      8 N3          -5.8280     0.2550     0.0880 n7         1 0QS      -0.873100
      9 CA          -4.5660    -0.1180     0.6720 c3         1 0QS       0.185500
     10 CB          -4.6070    -1.5590     1.2150 c3         1 0QS      -0.029100
     11 CG          -5.5930    -1.6940     2.3370 ca         1 0QS      -0.103300
     12 CD1         -6.9240    -2.0140     2.0860 ca         1 0QS      -0.116500
     13 CD2         -5.1990    -1.4570     3.6510 ca         1 0QS      -0.116500
     14 CE1         -7.8400    -2.1000     3.1260 ca         1 0QS      -0.117500
     15 CE2         -6.1100    -1.5410     4.6930 ca         1 0QS      -0.117500
     16 CZ          -7.4360    -1.8620     4.4320 ca         1 0QS      -0.109000
     17 C4          -3.4620    -0.0180    -0.3770 c          1 0QS       0.647100
     18 O           -3.6630    -0.3120    -1.5430 o          1 0QS      -0.608100
     19 N           -2.2720     0.3750     0.1080 ns         1 0QS      -0.571900
     20 CA1         -1.0580     0.3900    -0.6570 c3         1 0QS       0.025700
     21 C5          -0.0400    -0.5720    -0.0430 c          1 0QS       0.659100
     22 O1          -0.0570    -0.8340     1.1470 o          1 0QS      -0.583100
     23 CB1         -0.4420     1.7930    -0.6980 c3         1 0QS      -0.041100
     24 CG1         -1.3310     2.7700    -1.3830 cc         1 0QS      -0.057600
     25 ND1         -1.3500     4.1050    -1.0620 na         1 0QS      -0.121100
     26 CD21        -2.2120     2.6260    -2.4080 cd         1 0QS      -0.114300
     27 CE11        -2.1890     4.7550    -1.8500 cc         1 0QS      -0.022600
     28 NE2         -2.7230     3.8690    -2.6690 na         1 0QS      -0.110100
     29 N1           0.8530    -1.0520    -0.9190 ns         1 0QS      -0.546900
     30 CA2          2.0060    -1.8390    -0.5480 c3         1 0QS       0.047700
     31 CB2          2.2220    -2.9970    -1.5240 c3         1 0QS      -0.087400
     32 CG2          1.0030    -3.9210    -1.6780 c6         1 0QS      -0.058700
     33 CD11         1.4670    -5.3630    -1.9090 c6         1 0QS      -0.070400
     34 CD22         0.0720    -3.4990    -2.8180 c6         1 0QS      -0.070400
     35 CE12         0.3000    -6.3300    -2.0820 c6         1 0QS      -0.073400
     36 CE21        -1.1020    -4.4580    -2.9870 c6         1 0QS      -0.073400
     37 CZ1         -0.6260    -5.8890    -3.2080 c6         1 0QS      -0.075400
     38 CH           3.2060    -0.8560    -0.4050 c3         1 0QS       0.319600
     39 OH1          3.4670    -0.1800    -1.5870 oh         1 0QS      -0.590300
     40 OH2          2.8990     0.1660     0.4840 oh         1 0QS      -0.590300
     41 CM1          4.5150    -1.5320     0.0930 c3         1 0QS       0.278600
     42 F1           4.2260    -2.4550     1.0360 f          1 0QS      -0.219800
     43 F2           5.1270    -2.1920    -0.9320 f          1 0QS      -0.219800
     44 C6           5.5050    -0.5230     0.7110 c          1 0QS       0.649100
     45 O2           5.6380    -0.4680     1.9190 o          1 0QS      -0.554100
     46 O11         11.7000     2.7910     2.1460 os         1 0QS      -0.397600
     47 C21         11.7950     2.4160     0.7890 c6         1 0QS       0.130400
     48 C31         10.8520     1.2750     0.4580 c6         1 0QS       0.127800
     49 N4           9.4880     1.6530     0.7790 n3         1 0QS      -0.727600
     50 C51          9.4030     2.0210     2.1820 c6         1 0QS       0.127800
     51 C61         10.3770     3.1450     2.4810 c6         1 0QS       0.130400
     52 C7           8.5270     0.6380     0.4010 c3         1 0QS       0.149800
     53 C8           7.1300     1.2310     0.2330 c3         1 0QS       0.101000
     54 N2           6.1610     0.2330    -0.1700 ns         1 0QS      -0.548900
     55 H11         -7.2330     2.4610    -2.1110 hc         1 0QS       0.045811
     56 H12         -5.9680     3.6740    -2.2370 hc         1 0QS       0.045811
     57 H13         -5.5300     1.9840    -2.0140 hc         1 0QS       0.045811
     58 H21         -7.3580     4.2250     1.2120 hc         1 0QS       0.045811
     59 H22         -6.9820     5.0170    -0.3130 hc         1 0QS       0.045811
     60 H23         -8.2850     3.8350    -0.2470 hc         1 0QS       0.045811
     61 H31         -4.1320     2.6240     0.0810 hc         1 0QS       0.045811
     62 H32         -4.5730     4.2960    -0.2310 hc         1 0QS       0.045811
     63 H33         -4.8860     3.5970     1.3490 hc         1 0QS       0.045811
     64 HM2         -6.0850    -0.1730    -0.7910 hn         1 0QS       0.464800
     65 HA          -4.3550     0.5590     1.5030 h1         1 0QS       0.084700
     66 HB1         -4.8580    -2.2370     0.3960 hc         1 0QS       0.064700
     67 HB2         -3.6050    -1.8330     1.5570 hc         1 0QS       0.064700
     68 HD1         -7.2470    -2.2110     1.0720 ha         1 0QS       0.125500
     69 HD2         -4.1650    -1.2060     3.8620 ha         1 0QS       0.125500
     70 HE1         -8.8710    -2.3530     2.9140 ha         1 0QS       0.138000
     71 HE2         -5.7840    -1.3590     5.7090 ha         1 0QS       0.138000
     72 HZ          -8.1490    -1.9310     5.2440 ha         1 0QS       0.139000
     73 H           -2.1890     0.5700     1.0950 hn         1 0QS       0.342500
     74 HA1         -1.2950     0.0670    -1.6720 h1         1 0QS       0.095700
     75 HB21        -0.2390     2.1330     0.3200 hc         1 0QS       0.099200
     76 HB3          0.5230     1.7570    -1.2110 hc         1 0QS       0.099200
     77 HD11        -0.8070     4.5440    -0.3300 hn         1 0QS       0.362700
     78 HD21        -2.5220     1.7540    -2.9550 h4         1 0QS       0.243000
     79 HE11        -2.4030     5.8090    -1.8210 h5         1 0QS       0.255000
     80 HE21        -3.3960     4.0890    -3.3880 hn         1 0QS       0.364700
     81 H1           0.8020    -0.7370    -1.8750 hn         1 0QS       0.319500
     82 HA2          1.7950    -2.2700     0.4330 h1         1 0QS       0.109700
     83 HB22         2.5170    -2.6310    -2.5140 hc         1 0QS       0.058200
     84 HB31         3.0590    -3.5900    -1.1550 hc         1 0QS       0.058200
     85 HG           0.4280    -3.9030    -0.7410 hc         1 0QS       0.057700
     86 HD12         2.1000    -5.3900    -2.8040 hc         1 0QS       0.034950
     87 HD13         2.0980    -5.6830    -1.0750 hc         1 0QS       0.034950
     88 HD23        -0.3100    -2.4900    -2.6550 hc         1 0QS       0.034950
     89 HD22         0.6520    -3.4630    -3.7480 hc         1 0QS       0.034950
     90 HE12         0.6780    -7.3380    -2.2690 hc         1 0QS       0.044450
     91 HE13        -0.2670    -6.3810    -1.1460 hc         1 0QS       0.044450
     92 HE23        -1.7300    -4.4180    -2.0910 hc         1 0QS       0.044450
     93 HE22        -1.7300    -4.1310    -3.8200 hc         1 0QS       0.044450
     94 HZ2         -0.0930    -5.9500    -4.1630 hc         1 0QS       0.046200
     95 HZ3         -1.4800    -6.5670    -3.2840 hc         1 0QS       0.046200
     96 HH1          3.6130    -0.7990    -2.3110 ho         1 0QS       0.447500
     97 HH2          2.4940    -0.1840     1.2860 ho         1 0QS       0.447500
     98 H221        12.8270     2.1150     0.6040 h1         1 0QS       0.051950
     99 H311        10.9260     1.0560    -0.6100 h1         1 0QS       0.043700
    100 H321        11.1680     0.3670     0.9990 h1         1 0QS       0.043700
    101 H51          8.3960     2.3670     2.4250 h1         1 0QS       0.043700
    102 H52          9.6130     1.1610     2.8410 h1         1 0QS       0.043700
    103 H61         10.3620     3.3810     3.5460 h1         1 0QS       0.051950
    104 H62         10.0680     4.0460     1.9310 h1         1 0QS       0.051950
    105 H1'1         8.8360     0.2130    -0.5570 h1         1 0QS       0.043200
    106 H1'2         8.4950    -0.1960     1.1210 h1         1 0QS       0.043200
    107 H2'1         6.7840     1.6980     1.1540 h1         1 0QS       0.063700
    108 H2'2         7.1540     2.0030    -0.5350 h1         1 0QS       0.063700
    109 HN21         5.9980     0.1130    -1.1560 hn         1 0QS       0.327500
    110 H211        11.5700     3.2710     0.1360 h1         1 0QS       0.051950
@<TRIPOS>BOND
     1     1     2 2   
     2     1     3 2   
     3     1     4 1   
     4     1     8 1   
     5     4     5 1   
     6     4     6 1   
     7     4     7 1   
     8     5    55 1   
     9     5    56 1   
    10     5    57 1   
    11     6    58 1   
    12     6    59 1   
    13     6    60 1   
    14     7    61 1   
    15     7    62 1   
    16     7    63 1   
    17     8     9 1   
    18     8    64 1   
    19     9    10 1   
    20     9    17 1   
    21     9    65 1   
    22    10    11 1   
    23    10    66 1   
    24    10    67 1   
    25    11    12 ar  
    26    11    13 ar  
    27    12    14 ar  
    28    12    68 1   
    29    13    15 ar  
    30    13    69 1   
    31    14    16 ar  
    32    14    70 1   
    33    15    16 ar  
    34    15    71 1   
    35    16    72 1   
    36    17    18 2   
    37    17    19 1   
    38    19    20 1   
    39    19    73 1   
    40    20    21 1   
    41    20    23 1   
    42    20    74 1   
    43    21    22 2   
    44    21    29 1   
    45    23    24 1   
    46    23    75 1   
    47    23    76 1   
    48    24    25 1   
    49    24    26 2   
    50    25    27 2   
    51    25    77 1   
    52    26    28 1   
    53    26    78 1   
    54    27    28 1   
    55    27    79 1   
    56    28    80 1   
    57    29    30 1   
    58    29    81 1   
    59    30    31 1   
    60    30    38 1   
    61    30    82 1   
    62    31    32 1   
    63    31    83 1   
    64    31    84 1   
    65    32    33 1   
    66    32    34 1   
    67    32    85 1   
    68    33    35 1   
    69    33    86 1   
    70    33    87 1   
    71    34    36 1   
    72    34    88 1   
    73    34    89 1   
    74    35    37 1   
    75    35    90 1   
    76    35    91 1   
    77    36    37 1   
    78    36    92 1   
    79    36    93 1   
    80    37    94 1   
    81    37    95 1   
    82    38    39 1   
    83    38    40 1   
    84    38    41 1   
    85    39    96 1   
    86    40    97 1   
    87    41    42 1   
    88    41    43 1   
    89    41    44 1   
    90    44    45 2   
    91    44    54 1   
    92    46    47 1   
    93    46    51 1   
    94    47    48 1   
    95    47    98 1   
    96    47   110 1   
    97    48    49 1   
    98    48    99 1   
    99    48   100 1   
   100    49    50 1   
   101    49    52 1   
   102    50    51 1   
   103    50   101 1   
   104    50   102 1   
   105    51   103 1   
   106    51   104 1   
   107    52    53 1   
   108    52   105 1   
   109    52   106 1   
   110    53    54 1   
   111    53   107 1   
   112    53   108 1   
   113    54   109 1   
@<TRIPOS>SUBSTRUCTURE
     1 0QS         1 TEMP              0 ****  ****    0 ROOT
