@<TRIPOS>MOLECULE
0QV
   34    36     1     0     0
SMALL
abcg2


@<TRIPOS>ATOM
      1 CAJ          1.6370    -1.1940     0.8080 c6         1 0QV       0.078000
      2 CAH          2.6860    -1.7110    -0.1650 c6         1 0QV      -0.113400
      3 CAQ          3.9980    -0.9570     0.0240 c6         1 0QV       0.172300
      4 OAA          4.9680    -1.3080    -0.9380 oh         1 0QV      -0.652000
      5 CAI          3.7520     0.5390    -0.0740 c6         1 0QV      -0.113400
      6 CAK          2.6640     0.9880     0.8940 c6         1 0QV       0.078000
      7 NAR          1.4360     0.2450     0.6450 n          1 0QV      -0.311800
      8 CAM          0.2720     0.8380     0.3760 cs         1 0QV       0.452600
      9 SAB          0.0200     2.4910     0.5340 s          1 0QV      -0.600400
     10 CAN         -0.8360     0.0150    -0.1090 cc         1 0QV      -0.183400
     11 CAP         -2.2150     0.0790     0.2930 ca         1 0QV      -0.055800
     12 CAF         -2.9170     0.7880     1.2740 ca         1 0QV      -0.043000
     13 CAD         -4.2740     0.5700     1.4090 ca         1 0QV      -0.137000
     14 CAC         -4.9520    -0.3430     0.5850 ca         1 0QV      -0.088000
     15 CAE         -4.2850    -1.0580    -0.3890 ca         1 0QV      -0.129000
     16 CAO         -2.9150    -0.8350    -0.5200 ca         1 0QV      -0.057200
     17 NAL         -2.0120    -1.3980    -1.3800 na         1 0QV      -0.211700
     18 CAG         -0.7770    -0.9020    -1.1320 cd         1 0QV      -0.132100
     19 H1           0.6990    -1.7280     0.7030 h1         1 0QV       0.071200
     20 H2           1.9820    -1.3530     1.8350 h1         1 0QV       0.071200
     21 H3           2.8300    -2.7800     0.0130 hc         1 0QV       0.061700
     22 H4           2.3370    -1.5940    -1.1960 hc         1 0QV       0.061700
     23 H5           4.3640    -1.1740     1.0400 h1         1 0QV       0.028700
     24 H6           5.1660    -2.2450    -0.8400 ho         1 0QV       0.443000
     25 H7           4.6670     1.0920     0.1530 hc         1 0QV       0.061700
     26 H8           3.4540     0.7990    -1.0940 hc         1 0QV       0.061700
     27 H9           2.9720     0.8140     1.9300 h1         1 0QV       0.071200
     28 H10          2.4660     2.0500     0.7850 h1         1 0QV       0.071200
     29 H11         -2.4050     1.4980     1.9080 ha         1 0QV       0.138000
     30 H12         -4.8300     1.1120     2.1640 ha         1 0QV       0.115000
     31 H13         -6.0160    -0.4890     0.7170 ha         1 0QV       0.112000
     32 H14         -4.8030    -1.7660    -1.0220 ha         1 0QV       0.113000
     33 H15         -2.2240    -2.0660    -2.1030 hn         1 0QV       0.353000
     34 H16          0.0650    -1.2110    -1.7310 h4         1 0QV       0.215000
@<TRIPOS>BOND
     1     1     2 1   
     2     1     7 1   
     3     1    19 1   
     4     1    20 1   
     5     2     3 1   
     6     2    21 1   
     7     2    22 1   
     8     3     4 1   
     9     3     5 1   
    10     3    23 1   
    11     4    24 1   
    12     5     6 1   
    13     5    25 1   
    14     5    26 1   
    15     6     7 1   
    16     6    27 1   
    17     6    28 1   
    18     7     8 1   
    19     8     9 2   
    20     8    10 1   
    21    10    11 1   
    22    10    18 2   
    23    11    12 ar  
    24    11    16 ar  
    25    12    13 ar  
    26    12    29 1   
    27    13    14 ar  
    28    13    30 1   
    29    14    15 ar  
    30    14    31 1   
    31    15    16 ar  
    32    15    32 1   
    33    16    17 1   
    34    17    18 1   
    35    17    33 1   
    36    18    34 1   
@<TRIPOS>SUBSTRUCTURE
     1 0QV         1 TEMP              0 ****  ****    0 ROOT
