@<TRIPOS>MOLECULE
0QV
   34    36     1     0     0
SMALL
No Charge or Current Charge


@<TRIPOS>ATOM
      1 CAJ          1.7630    -1.2580     0.6850 c6         1 0QV       0.078000
      2 CAH          2.9420    -1.8040    -0.1540 c6         1 0QV      -0.113400
      3 CAQ          4.1930    -0.9250     0.0270 c6         1 0QV       0.172300
      4 OAA          5.2540    -1.4000    -0.8030 oh         1 0QV      -0.652000
      5 CAI          3.8470     0.5280    -0.3430 c6         1 0QV      -0.113400
      6 CAK          2.6460     1.0520     0.4800 c6         1 0QV       0.078000
      7 NAR          1.4380     0.1780     0.4030 n          1 0QV      -0.311800
      8 CAM          0.1810     0.6940     0.7040 cs         1 0QV       0.452600
      9 SAB          0.0160     2.1160     1.5870 s          1 0QV      -0.600400
     10 CAN         -0.9640    -0.0270     0.1610 cc         1 0QV      -0.183400
     11 CAP         -2.3830     0.0600     0.4230 ca         1 0QV      -0.055800
     12 CAF         -3.0990     0.7900     1.3890 ca         1 0QV      -0.043000
     13 CAD         -4.5040     0.6610     1.4190 ca         1 0QV      -0.137000
     14 CAC         -5.1640    -0.1880     0.5020 ca         1 0QV      -0.088000
     15 CAE         -4.4210    -0.9180    -0.4480 ca         1 0QV      -0.129000
     16 CAO         -3.0270    -0.7690    -0.4550 ca         1 0QV      -0.057200
     17 NAL         -2.1270    -1.3960    -1.2910 na         1 0QV      -0.211700
     18 CAG         -0.8510    -0.9180    -0.9160 cd         1 0QV      -0.132100
     19 H1           0.8890    -1.9070     0.5500 h1         1 0QV       0.071200
     20 H2           2.0290    -1.3390     1.7490 h1         1 0QV       0.071200
     21 H3           3.1580    -2.8380     0.1470 hc         1 0QV       0.061700
     22 H4           2.6530    -1.8360    -1.2130 hc         1 0QV       0.061700
     23 H5           4.5000    -0.9560     1.0840 h1         1 0QV       0.028700
     24 H6           5.4900    -2.2950    -0.4750 ho         1 0QV       0.443000
     25 H7           4.7190     1.1760    -0.1770 hc         1 0QV       0.061700
     26 H8           3.6080     0.5920    -1.4130 hc         1 0QV       0.061700
     27 H9           2.9440     1.1510     1.5340 h1         1 0QV       0.071200
     28 H10          2.3930     2.0590     0.1170 h1         1 0QV       0.071200
     29 H11         -2.5950     1.4330     2.1030 ha         1 0QV       0.138000
     30 H12         -5.0810     1.2160     2.1550 ha         1 0QV       0.115000
     31 H13         -6.2480    -0.2830     0.5330 ha         1 0QV       0.112000
     32 H14         -4.9180    -1.5790    -1.1540 ha         1 0QV       0.113000
     33 H15         -2.3420    -2.0440    -2.0440 hn         1 0QV       0.353000
     34 H16          0.0350    -1.2180    -1.4690 h4         1 0QV       0.215000
@<TRIPOS>BOND
     1     1     2 1   
     2     1     7 1   
     3     1    19 1   
     4     1    20 1   
     5     2     3 1   
     6     2    21 1   
     7     2    22 1   
     8     3     4 1   
     9     3     5 1   
    10     3    23 1   
    11     4    24 1   
    12     5     6 1   
    13     5    25 1   
    14     5    26 1   
    15     6     7 1   
    16     6    27 1   
    17     6    28 1   
    18     7     8 1   
    19     8     9 2   
    20     8    10 1   
    21    10    11 1   
    22    10    18 2   
    23    11    12 ar  
    24    11    16 ar  
    25    12    13 ar  
    26    12    29 1   
    27    13    14 ar  
    28    13    30 1   
    29    14    15 ar  
    30    14    31 1   
    31    15    16 ar  
    32    15    32 1   
    33    16    17 1   
    34    17    18 1   
    35    17    33 1   
    36    18    34 1   
@<TRIPOS>SUBSTRUCTURE
     1 0QV         1 TEMP              0 ****  ****    0 ROOT
