@<TRIPOS>MOLECULE
0QW
   27    28     1     0     0
SMALL
No Charge or Current Charge


@<TRIPOS>ATOM
      1 C8           2.9040    -0.3710    -0.1000 c5         1 0QW       0.082000
      2 C9           3.6490     0.8590     0.4740 c5         1 0QW      -0.096400
      3 C10          2.9170     2.0070    -0.2540 c5         1 0QW      -0.096400
      4 C11          1.4360     1.5870    -0.0720 c5         1 0QW       0.082000
      5 N1           1.5030     0.1040    -0.1490 n          1 0QW      -0.286800
      6 C7           0.4340    -0.7100    -0.4810 cs         1 0QW       0.416000
      7 S1           0.6250    -2.3060    -0.9720 s          1 0QW      -0.599400
      8 C6          -0.9610    -0.1460    -0.3670 ca         1 0QW      -0.145600
      9 C5          -1.8200    -0.2350    -1.4820 ca         1 0QW      -0.036000
     10 C4          -3.1270     0.2790    -1.4230 ca         1 0QW      -0.150000
     11 C3          -3.5980     0.8700    -0.2420 ca         1 0QW      -0.056000
     12 C2          -2.7640     0.9330     0.8860 ca         1 0QW      -0.208000
     13 C1          -1.4560     0.4220     0.8310 ca         1 0QW       0.158100
     14 O1          -0.7060     0.4270     1.9690 oh         1 0QW      -0.529100
     15 H1           3.2610    -0.6250    -1.1080 h1         1 0QW       0.069950
     16 H2           3.0190    -1.2550     0.5410 h1         1 0QW       0.069950
     17 H3           3.5250     0.9290     1.5620 hc         1 0QW       0.058950
     18 H4           4.7250     0.8350     0.2640 hc         1 0QW       0.058950
     19 H5           3.1300     2.9920     0.1780 hc         1 0QW       0.058950
     20 H6           3.1920     2.0460    -1.3150 hc         1 0QW       0.058950
     21 H7           1.0620     1.9120     0.9060 h1         1 0QW       0.069950
     22 H8           0.7900     2.0160    -0.8490 h1         1 0QW       0.069950
     23 H9          -1.4670    -0.6880    -2.4060 ha         1 0QW       0.130000
     24 H10         -3.7740     0.2170    -2.2950 ha         1 0QW       0.122000
     25 H11         -4.6110     1.2650    -0.1960 ha         1 0QW       0.116000
     26 H12         -3.1470     1.3690     1.8050 ha         1 0QW       0.116000
     27 H13         -1.2480     0.8040     2.6940 ho         1 0QW       0.468000
@<TRIPOS>BOND
     1     1     2 1   
     2     1     5 1   
     3     1    15 1   
     4     1    16 1   
     5     2     3 1   
     6     2    17 1   
     7     2    18 1   
     8     3     4 1   
     9     3    19 1   
    10     3    20 1   
    11     4     5 1   
    12     4    21 1   
    13     4    22 1   
    14     5     6 1   
    15     6     7 2   
    16     6     8 1   
    17     8     9 ar  
    18     8    13 ar  
    19     9    10 ar  
    20     9    23 1   
    21    10    11 ar  
    22    10    24 1   
    23    11    12 ar  
    24    11    25 1   
    25    12    13 ar  
    26    12    26 1   
    27    13    14 1   
    28    14    27 1   
@<TRIPOS>SUBSTRUCTURE
     1 0QW         1 TEMP              0 ****  ****    0 ROOT
