@<TRIPOS>MOLECULE
0QW
   27    28     1     0     0
SMALL
abcg2


@<TRIPOS>ATOM
      1 C8           2.8440    -0.3690    -0.0520 c5         1 0QW       0.082000
      2 C9           3.6380     0.8930     0.2590 c5         1 0QW      -0.096400
      3 C10          2.7830     2.0040    -0.3410 c5         1 0QW      -0.096400
      4 C11          1.3680     1.5510    -0.0120 c5         1 0QW       0.082000
      5 N1           1.4570     0.0900    -0.1020 n          1 0QW      -0.286800
      6 C7           0.4420    -0.7300    -0.2760 cs         1 0QW       0.416000
      7 S1           0.6170    -2.3760    -0.5040 s          1 0QW      -0.599400
      8 C6          -0.9190    -0.1350    -0.2880 ca         1 0QW      -0.145600
      9 C5          -1.6420    -0.0740    -1.4740 ca         1 0QW      -0.036000
     10 C4          -2.9200     0.4630    -1.5040 ca         1 0QW      -0.150000
     11 C3          -3.4920     0.9210    -0.3250 ca         1 0QW      -0.056000
     12 C2          -2.7950     0.8460     0.8710 ca         1 0QW      -0.208000
     13 C1          -1.5060     0.3190     0.8960 ca         1 0QW       0.158100
     14 O1          -0.7850     0.2100     2.0270 oh         1 0QW      -0.529100
     15 H1           3.1150    -0.7970    -1.0210 h1         1 0QW       0.069950
     16 H2           2.9560    -1.1550     0.6950 h1         1 0QW       0.069950
     17 H3           3.7280     1.0290     1.3390 hc         1 0QW       0.058950
     18 H4           4.6440     0.8510    -0.1550 hc         1 0QW       0.058950
     19 H5           3.0020     2.9880     0.0720 hc         1 0QW       0.058950
     20 H6           2.9220     2.0530    -1.4220 hc         1 0QW       0.058950
     21 H7           1.0880     1.8450     1.0010 h1         1 0QW       0.069950
     22 H8           0.6190     1.9360    -0.7010 h1         1 0QW       0.069950
     23 H9          -1.1880    -0.4460    -2.3840 ha         1 0QW       0.130000
     24 H10         -3.4640     0.5200    -2.4370 ha         1 0QW       0.122000
     25 H11         -4.4910     1.3380    -0.3300 ha         1 0QW       0.116000
     26 H12         -3.2530     1.1910     1.7910 ha         1 0QW       0.116000
     27 H13         -1.2740     0.5720     2.7750 ho         1 0QW       0.468000
@<TRIPOS>BOND
     1     1     2 1   
     2     1     5 1   
     3     1    15 1   
     4     1    16 1   
     5     2     3 1   
     6     2    17 1   
     7     2    18 1   
     8     3     4 1   
     9     3    19 1   
    10     3    20 1   
    11     4     5 1   
    12     4    21 1   
    13     4    22 1   
    14     5     6 1   
    15     6     7 2   
    16     6     8 1   
    17     8     9 ar  
    18     8    13 ar  
    19     9    10 ar  
    20     9    23 1   
    21    10    11 ar  
    22    10    24 1   
    23    11    12 ar  
    24    11    25 1   
    25    12    13 ar  
    26    12    26 1   
    27    13    14 1   
    28    14    27 1   
@<TRIPOS>SUBSTRUCTURE
     1 0QW         1 TEMP              0 ****  ****    0 ROOT
