@<TRIPOS>MOLECULE
0QX
   31    34     1     0     0
SMALL
abcg2


@<TRIPOS>ATOM
      1 CAS          2.1140     0.1990    -0.2700 ca         1 0QX      -0.093800
      2 CAE          1.9960    -1.1490    -0.6270 ca         1 0QX      -0.055000
      3 CAB          2.8410    -2.0700    -0.0390 ca         1 0QX      -0.137000
      4 CAA          3.8040    -1.6700     0.9030 ca         1 0QX      -0.087000
      5 CAD          3.9400    -0.3460     1.2770 ca         1 0QX      -0.131000
      6 CAQ          3.0850     0.5800     0.6810 ca         1 0QX      -0.048200
      7 NAL          2.9840     1.9310     0.8470 na         1 0QX      -0.221700
      8 CAH          1.9930     2.4140     0.0430 cc         1 0QX      -0.158100
      9 CAN          1.4290     1.3930    -0.6680 cd         1 0QX      -0.164400
     10 CAI          0.3050     1.4820    -1.6480 c3         1 0QX      -0.019500
     11 CAO         -0.9220     0.7790    -1.1690 cc         1 0QX       0.423800
     12 NAM         -1.3940     0.9580     0.0980 na         1 0QX      -0.303600
     13 CAR         -2.5190     0.2040     0.2260 ca         1 0QX      -0.055200
     14 CAF         -3.4240    -0.0250     1.2530 ca         1 0QX      -0.166000
     15 CAC         -4.4570    -0.8930     0.9460 ca         1 0QX       0.340900
     16 NAJ         -4.6240    -1.4980    -0.2370 nb         1 0QX      -0.687000
     17 CAG         -3.7540    -1.2710    -1.2080 ca         1 0QX       0.401900
     18 CAP         -2.6720    -0.4170    -1.0230 ca         1 0QX       0.011400
     19 NAK         -1.6570    -0.0380    -1.8690 nd         1 0QX      -0.566100
     20 H1           1.2530    -1.4660    -1.3490 ha         1 0QX       0.127000
     21 H2           2.7640    -3.1160    -0.3050 ha         1 0QX       0.115000
     22 H3           4.4540    -2.4140     1.3450 ha         1 0QX       0.112000
     23 H4           4.6830    -0.0430     2.0040 ha         1 0QX       0.114000
     24 H5           3.5450     2.4900     1.4680 hn         1 0QX       0.352000
     25 H6           1.7560     3.4670     0.0310 h4         1 0QX       0.212000
     26 H7           0.0600     2.5310    -1.8360 hc         1 0QX       0.074700
     27 H8           0.5790     1.0470    -2.6110 hc         1 0QX       0.074700
     28 H9          -0.9680     1.5360     0.8070 hn         1 0QX       0.362000
     29 H10         -3.3440     0.4340     2.2280 ha         1 0QX       0.125000
     30 H11         -5.2010    -1.1180     1.7020 h4         1 0QX       0.017100
     31 H12         -3.9130    -1.7750    -2.1560 h4         1 0QX       0.032100
@<TRIPOS>BOND
     1     1     2 ar  
     2     1     6 ar  
     3     1     9 1   
     4     2     3 ar  
     5     2    20 1   
     6     3     4 ar  
     7     3    21 1   
     8     4     5 ar  
     9     4    22 1   
    10     5     6 ar  
    11     5    23 1   
    12     6     7 1   
    13     7     8 1   
    14     7    24 1   
    15     8     9 2   
    16     8    25 1   
    17     9    10 1   
    18    10    11 1   
    19    10    26 1   
    20    10    27 1   
    21    11    12 1   
    22    11    19 2   
    23    12    13 1   
    24    12    28 1   
    25    13    14 ar  
    26    13    18 ar  
    27    14    15 ar  
    28    14    29 1   
    29    15    16 ar  
    30    15    30 1   
    31    16    17 ar  
    32    17    18 ar  
    33    17    31 1   
    34    18    19 1   
@<TRIPOS>SUBSTRUCTURE
     1 0QX         1 TEMP              0 ****  ****    0 ROOT
