@<TRIPOS>MOLECULE
0QX
   31    34     1     0     0
SMALL
No Charge or Current Charge


@<TRIPOS>ATOM
      1 CAS          2.1780     0.2160    -0.2130 ca         1 0QX      -0.093800
      2 CAE          2.0560    -1.1570    -0.4650 ca         1 0QX      -0.055000
      3 CAB          2.9020    -2.0300     0.2540 ca         1 0QX      -0.137000
      4 CAA          3.8340    -1.5170     1.1900 ca         1 0QX      -0.087000
      5 CAD          3.9270    -0.1260     1.4170 ca         1 0QX      -0.131000
      6 CAQ          3.0740     0.7130     0.6890 ca         1 0QX      -0.048200
      7 NAL          2.9650     2.0920     0.7270 na         1 0QX      -0.221700
      8 CAH          1.9660     2.5210    -0.1730 cc         1 0QX      -0.158100
      9 CAN          1.4780     1.3570    -0.7560 cd         1 0QX      -0.164400
     10 CAI          0.3670     1.2880    -1.7800 c3         1 0QX      -0.019500
     11 CAO         -0.9240     0.7100    -1.2590 cc         1 0QX       0.423800
     12 NAM         -1.1550     0.3870     0.0770 na         1 0QX      -0.303600
     13 CAR         -2.4180    -0.1070     0.1530 ca         1 0QX      -0.055200
     14 CAF         -3.1580    -0.5820     1.2380 ca         1 0QX      -0.166000
     15 CAC         -4.4690    -1.0320     0.9650 ca         1 0QX       0.340900
     16 NAJ         -5.0180    -1.0180    -0.2830 nb         1 0QX      -0.687000
     17 CAG         -4.2560    -0.5460    -1.3120 ca         1 0QX       0.401900
     18 CAP         -2.9360    -0.0810    -1.1050 ca         1 0QX       0.011400
     19 NAK         -2.0070     0.4340    -2.0180 nd         1 0QX      -0.566100
     20 H1           1.3360    -1.5390    -1.1850 ha         1 0QX       0.127000
     21 H2           2.8380    -3.1030     0.0870 ha         1 0QX       0.115000
     22 H3           4.4810    -2.1990     1.7380 ha         1 0QX       0.112000
     23 H4           4.6380     0.2780     2.1340 ha         1 0QX       0.114000
     24 H5           3.5240     2.7000     1.3180 hn         1 0QX       0.352000
     25 H6           1.6960     3.5650    -0.3140 h4         1 0QX       0.212000
     26 H7           0.1650     2.2890    -2.1760 hc         1 0QX       0.074700
     27 H8           0.7000     0.6900    -2.6360 hc         1 0QX       0.074700
     28 H9          -0.4870     0.4960     0.8280 hn         1 0QX       0.362000
     29 H10         -2.7540    -0.6080     2.2460 ha         1 0QX       0.125000
     30 H11         -5.0990    -1.4140     1.7660 h4         1 0QX       0.017100
     31 H12         -4.7080    -0.5410    -2.3040 h4         1 0QX       0.032100
@<TRIPOS>BOND
     1     1     2 ar  
     2     1     6 ar  
     3     1     9 1   
     4     2     3 ar  
     5     2    20 1   
     6     3     4 ar  
     7     3    21 1   
     8     4     5 ar  
     9     4    22 1   
    10     5     6 ar  
    11     5    23 1   
    12     6     7 1   
    13     7     8 1   
    14     7    24 1   
    15     8     9 2   
    16     8    25 1   
    17     9    10 1   
    18    10    11 1   
    19    10    26 1   
    20    10    27 1   
    21    11    12 1   
    22    11    19 2   
    23    12    13 1   
    24    12    28 1   
    25    13    14 ar  
    26    13    18 ar  
    27    14    15 ar  
    28    14    29 1   
    29    15    16 ar  
    30    15    30 1   
    31    16    17 ar  
    32    17    18 ar  
    33    17    31 1   
    34    18    19 1   
@<TRIPOS>SUBSTRUCTURE
     1 0QX         1 TEMP              0 ****  ****    0 ROOT
