@<TRIPOS>MOLECULE
0QY
   48    52     1     0     0
SMALL
No Charge or Current Charge


@<TRIPOS>ATOM
      1 O01         -4.3220     0.2370     1.6200 o          1 0QY      -0.575100
      2 C02         -4.5490     0.1100     0.4190 c          1 0QY       0.607100
      3 C03         -5.9670     0.1920    -0.2680 c5         1 0QY       0.063500
      4 N04         -7.0820    -0.4490     0.5150 n7         1 0QY      -0.812400
      5 C05         -8.2730     0.3510     0.1750 c5         1 0QY       0.135800
      6 C06         -7.7320     1.7830     0.3480 c5         1 0QY      -0.113400
      7 C07         -6.3920     1.6920    -0.4340 c5         1 0QY      -0.110400
      8 N08         -3.5970    -0.1790    -0.5530 ns         1 0QY      -0.146000
      9 C09         -2.1880    -0.3650    -0.4830 ca         1 0QY      -0.057000
     10 C10         -1.5140    -0.6960    -1.6870 ca         1 0QY      -0.140000
     11 C11         -0.1180    -0.8960    -1.7040 ca         1 0QY      -0.089000
     12 C12         -1.4440    -0.2310     0.7190 ca         1 0QY      -0.059000
     13 C13         -0.0570    -0.4340     0.6760 ca         1 0QY       0.090400
     14 C14          0.5650    -0.7530    -0.4940 ca         1 0QY      -0.101200
     15 N15          1.8890    -0.8820    -0.2110 na         1 0QY      -0.303600
     16 C16          2.0420    -0.6300     1.1500 cc         1 0QY       0.425800
     17 C17          3.3640    -0.6670     1.8740 c3         1 0QY      -0.020500
     18 C18          4.5770    -0.6610     0.9750 cc         1 0QY      -0.161400
     19 C19          5.5200    -1.6720     0.8170 cd         1 0QY      -0.159100
     20 N20          6.4900    -1.2720    -0.1360 na         1 0QY      -0.222700
     21 C21          6.1180    -0.0060    -0.5480 ca         1 0QY      -0.048200
     22 C22          6.7590     0.8150    -1.4860 ca         1 0QY      -0.132000
     23 C23          6.1980     2.0810    -1.7560 ca         1 0QY      -0.087000
     24 C24          5.0210     2.4970    -1.0900 ca         1 0QY      -0.139000
     25 C25          4.3970     1.6490    -0.1500 ca         1 0QY      -0.053000
     26 C26          4.9820     0.3970     0.0940 ca         1 0QY      -0.094800
     27 N27          0.8540    -0.3520     1.7270 nd         1 0QY      -0.582100
     28 H1          -5.9010    -0.2790    -1.2600 h1         1 0QY       0.074700
     29 H2          -6.8890    -0.3080     1.5170 hn         1 0QY       0.427000
     30 H4          -8.5960     0.1630    -0.8600 h1         1 0QY       0.056200
     31 H5          -9.1200     0.1390     0.8430 h1         1 0QY       0.056200
     32 H6          -8.4090     2.5410    -0.0620 hc         1 0QY       0.049700
     33 H7          -7.5670     2.0240     1.4050 hc         1 0QY       0.049700
     34 H8          -5.6490     2.3990    -0.0480 hc         1 0QY       0.052200
     35 H9          -6.5370     1.9340    -1.4940 hc         1 0QY       0.052200
     36 H10         -3.9740    -0.2680    -1.4880 hn         1 0QY       0.148000
     37 H11         -2.0750    -0.7990    -2.6130 ha         1 0QY       0.107000
     38 H12          0.4040    -1.1500    -2.6240 ha         1 0QY       0.117000
     39 H13         -1.9060     0.0250     1.6660 ha         1 0QY       0.158000
     40 H14          2.6400    -1.1000    -0.8530 hn         1 0QY       0.359000
     41 H15          3.4190     0.1920     2.5530 hc         1 0QY       0.073700
     42 H16          3.3860    -1.5570     2.5130 hc         1 0QY       0.073700
     43 H17          5.5700    -2.6420     1.3060 h4         1 0QY       0.212000
     44 H18          7.2950    -1.8050    -0.4520 hn         1 0QY       0.351000
     45 H19          7.6640     0.4870    -1.9930 ha         1 0QY       0.113000
     46 H20          6.6730     2.7410    -2.4800 ha         1 0QY       0.111000
     47 H21          4.5940     3.4740    -1.3030 ha         1 0QY       0.115000
     48 H22          3.4920     1.9590     0.3680 ha         1 0QY       0.129000
@<TRIPOS>BOND
     1     1     2 2   
     2     2     3 1   
     3     2     8 1   
     4     3     4 1   
     5     3     7 1   
     6     3    28 1   
     7     4     5 1   
     8     4    29 1   
     9     5     6 1   
    10     5    30 1   
    11     5    31 1   
    12     6     7 1   
    13     6    32 1   
    14     6    33 1   
    15     7    34 1   
    16     7    35 1   
    17     8     9 1   
    18     8    36 1   
    19     9    10 ar  
    20     9    12 ar  
    21    10    11 ar  
    22    10    37 1   
    23    11    14 ar  
    24    11    38 1   
    25    12    13 ar  
    26    12    39 1   
    27    13    14 ar  
    28    13    27 1   
    29    14    15 1   
    30    15    16 1   
    31    15    40 1   
    32    16    17 1   
    33    16    27 2   
    34    17    18 1   
    35    17    41 1   
    36    17    42 1   
    37    18    19 2   
    38    18    26 1   
    39    19    20 1   
    40    19    43 1   
    41    20    21 1   
    42    20    44 1   
    43    21    22 ar  
    44    21    26 ar  
    45    22    23 ar  
    46    22    45 1   
    47    23    24 ar  
    48    23    46 1   
    49    24    25 ar  
    50    24    47 1   
    51    25    26 ar  
    52    25    48 1   
@<TRIPOS>SUBSTRUCTURE
     1 0QY         1 TEMP              0 ****  ****    0 ROOT
