@<TRIPOS>MOLECULE
0QY
   48    52     1     0     0
SMALL
bcc


@<TRIPOS>ATOM
      1 O01         -3.7580     0.8610     1.4030 o          1 0QY      -0.575100
      2 C02         -4.2610     0.2020     0.5090 c          1 0QY       0.674100
      3 C03         -5.7280     0.3160     0.1460 c5         1 0QY       0.063500
      4 N04         -6.5130     0.8770     1.2270 n7         1 0QY      -0.757200
      5 C05         -7.7130     1.3780     0.5710 c5         1 0QY       0.135800
      6 C06         -7.2780     1.9400    -0.7960 c5         1 0QY      -0.113400
      7 C07         -5.9450     1.2300    -1.0930 c5         1 0QY      -0.110400
      8 N08         -3.5770    -0.6560    -0.2820 ns         1 0QY      -0.472100
      9 C09         -2.1900    -0.8850    -0.3140 ca         1 0QY       0.035600
     10 C10         -1.6530    -1.3010    -1.5490 ca         1 0QY      -0.158000
     11 C11         -0.3100    -1.5840    -1.7050 ca         1 0QY      -0.107000
     12 C12         -1.3770    -0.7470     0.8020 ca         1 0QY      -0.077000
     13 C13         -0.0180    -1.0200     0.6500 ca         1 0QY       0.090400
     14 C14          0.4990    -1.4310    -0.5880 ca         1 0QY      -0.101200
     15 N15          1.8380    -1.6090    -0.3610 na         1 0QY      -0.253300
     16 C16          2.0730    -1.3150     0.9420 cc         1 0QY       0.425800
     17 C17          3.4380    -1.4210     1.5400 c3         1 0QY      -0.020500
     18 C18          4.4990    -0.8520     0.6580 cc         1 0QY      -0.161400
     19 C19          5.5220    -1.5250     0.0530 cd         1 0QY      -0.109100
     20 N20          6.2810    -0.6600    -0.6820 na         1 0QY      -0.172400
     21 C21          5.7650     0.5990    -0.5740 ca         1 0QY      -0.048200
     22 C22          6.1860     1.8030    -1.1360 ca         1 0QY      -0.150000
     23 C23          5.4490     2.9340    -0.8420 ca         1 0QY      -0.105000
     24 C24          4.3190     2.8760    -0.0080 ca         1 0QY      -0.157000
     25 C25          3.9060     1.6810     0.5470 ca         1 0QY      -0.071000
     26 C26          4.6340     0.5190     0.2660 ca         1 0QY      -0.094800
     27 N27          0.9910    -0.9570     1.5820 nd         1 0QY      -0.582100
     28 H1          -6.1170    -0.6820    -0.0840 h1         1 0QY       0.074700
     29 H2          -6.0000     1.6600     1.6190 hn         1 0QY       0.371800
     30 H4          -8.4120     0.5480     0.4280 h1         1 0QY       0.056200
     31 H5          -8.2120     2.1140     1.2000 h1         1 0QY       0.056200
     32 H6          -8.0270     1.7600    -1.5670 hc         1 0QY       0.049700
     33 H7          -7.1300     3.0190    -0.7380 hc         1 0QY       0.049700
     34 H8          -5.1340     1.9540    -1.1850 hc         1 0QY       0.052200
     35 H9          -5.9670     0.6510    -2.0170 hc         1 0QY       0.052200
     36 H10         -4.1040    -1.1010    -1.0180 hn         1 0QY       0.314500
     37 H11         -2.3130    -1.3990    -2.4010 ha         1 0QY       0.125000
     38 H12          0.0820    -1.9050    -2.6610 ha         1 0QY       0.135000
     39 H13         -1.7660    -0.4510     1.7630 ha         1 0QY       0.176000
     40 H14          2.5360    -1.8770    -1.0380 hn         1 0QY       0.308700
     41 H15          3.4100    -0.9170     2.5080 hc         1 0QY       0.073700
     42 H16          3.6550    -2.4740     1.7450 hc         1 0QY       0.073700
     43 H17          5.7700    -2.5750     0.0950 h4         1 0QY       0.162000
     44 H18          7.0980    -0.9180    -1.2100 hn         1 0QY       0.300700
     45 H19          7.0560     1.8520    -1.7790 ha         1 0QY       0.131000
     46 H20          5.7480     3.8860    -1.2620 ha         1 0QY       0.129000
     47 H21          3.7680     3.7840     0.1980 ha         1 0QY       0.133000
     48 H22          3.0340     1.6450     1.1890 ha         1 0QY       0.147000
@<TRIPOS>BOND
     1     1     2 2   
     2     2     3 1   
     3     2     8 1   
     4     3     4 1   
     5     3     7 1   
     6     3    28 1   
     7     4     5 1   
     8     4    29 1   
     9     5     6 1   
    10     5    30 1   
    11     5    31 1   
    12     6     7 1   
    13     6    32 1   
    14     6    33 1   
    15     7    34 1   
    16     7    35 1   
    17     8     9 1   
    18     8    36 1   
    19     9    10 ar  
    20     9    12 ar  
    21    10    11 ar  
    22    10    37 1   
    23    11    14 ar  
    24    11    38 1   
    25    12    13 ar  
    26    12    39 1   
    27    13    14 ar  
    28    13    27 1   
    29    14    15 1   
    30    15    16 1   
    31    15    40 1   
    32    16    17 1   
    33    16    27 2   
    34    17    18 1   
    35    17    41 1   
    36    17    42 1   
    37    18    19 2   
    38    18    26 1   
    39    19    20 1   
    40    19    43 1   
    41    20    21 1   
    42    20    44 1   
    43    21    22 ar  
    44    21    26 ar  
    45    22    23 ar  
    46    22    45 1   
    47    23    24 ar  
    48    23    46 1   
    49    24    25 ar  
    50    24    47 1   
    51    25    26 ar  
    52    25    48 1   
@<TRIPOS>SUBSTRUCTURE
     1 0QY         1 TEMP              0 ****  ****    0 ROOT
