@<TRIPOS>MOLECULE
0QZ
   13    12     1     0     0
SMALL
bcc


@<TRIPOS>ATOM
      1 N            2.6680    -0.4380     0.0010 n8         1 0QZ      -0.873800
      2 C1           1.2920    -0.6830    -0.4080 c3         1 0QZ       0.139800
      3 CA           0.3240     0.2400     0.3230 c3         1 0QZ       0.002100
      4 C           -1.1380    -0.0610    -0.0810 c          1 0QZ       0.898600
      5 O           -1.7550     0.9150    -0.5670 o          1 0QZ      -0.828800
      6 OB           0.6070     1.5930     0.0730 oh         1 0QZ      -0.632800
      7 H            2.7710    -0.6890     0.9770 hn         1 0QZ       0.307800
      8 H11          1.2130    -0.4970    -1.4850 h1         1 0QZ       0.031700
      9 H12          0.9630    -1.7160    -0.2410 h1         1 0QZ       0.031700
     10 HA           0.4160     0.0320     1.4020 h1         1 0QZ       0.018700
     11 HOB         -0.2390     1.9080    -0.3000 ho         1 0QZ       0.428000
     12 H2           3.2790    -1.0690    -0.5020 hn         1 0QZ       0.307800
     13 OXT         -1.5690    -1.2100     0.1010 o          1 0QZ      -0.828800
@<TRIPOS>BOND
     1     1     2 1   
     2     1     7 1   
     3     1    12 1   
     4     2     3 1   
     5     2     8 1   
     6     2     9 1   
     7     3     4 1   
     8     3     6 1   
     9     3    10 1   
    10     4     5 1   
    11     4    13 1   
    12     6    11 1   
@<TRIPOS>SUBSTRUCTURE
     1 0QZ         1 TEMP              0 ****  ****    0 ROOT
