@<TRIPOS>MOLECULE
0R0
   14    14     1     0     0
SMALL
bcc


@<TRIPOS>ATOM
      1 NAA         -3.0320    -0.7460     0.0210 n1         1 0R0      -0.365800
      2 CAC         -1.8890    -0.5970     0.0190 cg         1 0R0       0.248800
      3 CAI         -0.4760    -0.4290     0.0210 ca         1 0R0      -0.061000
      4 CAG          0.3670    -1.5400    -0.0560 ca         1 0R0      -0.051000
      5 CAE          1.7370    -1.3690    -0.0520 ca         1 0R0      -0.172000
      6 CAD          2.2640    -0.0830     0.0290 ca         1 0R0      -0.063000
      7 CAF          1.4390     1.0270     0.1050 ca         1 0R0      -0.232000
      8 CAH          0.0570     0.8650     0.1030 ca         1 0R0       0.179100
      9 OAB         -0.8080     1.8790     0.1750 oh         1 0R0      -0.477100
     10 H1          -0.0650    -2.5290    -0.1180 ha         1 0R0       0.146000
     11 H2           2.3930    -2.2260    -0.1120 ha         1 0R0       0.142000
     12 H3           3.3360     0.0590     0.0320 ha         1 0R0       0.135000
     13 H4           1.8670     2.0200     0.1690 ha         1 0R0       0.137000
     14 H5          -0.3450     2.7250     0.2180 ho         1 0R0       0.434000
@<TRIPOS>BOND
     1     1     2 3   
     2     2     3 1   
     3     3     4 ar  
     4     3     8 ar  
     5     4     5 ar  
     6     4    10 1   
     7     5     6 ar  
     8     5    11 1   
     9     6     7 ar  
    10     6    12 1   
    11     7     8 ar  
    12     7    13 1   
    13     8     9 1   
    14     9    14 1   
@<TRIPOS>SUBSTRUCTURE
     1 0R0         1 TEMP              0 ****  ****    0 ROOT
