@<TRIPOS>MOLECULE
0R0
   14    14     1     0     0
SMALL
No Charge or Current Charge


@<TRIPOS>ATOM
      1 NAA         -3.0900    -0.8370     0.0120 n1         1 0R0      -0.455000
      2 CAC         -1.9370    -0.6480     0.0170 cg         1 0R0       0.338000
      3 CAI         -0.5150    -0.4360     0.0220 ca         1 0R0      -0.061000
      4 CAG          0.3470    -1.5490    -0.0550 ca         1 0R0      -0.033000
      5 CAE          1.7410    -1.3640    -0.0520 ca         1 0R0      -0.154000
      6 CAD          2.2800    -0.0700     0.0290 ca         1 0R0      -0.045000
      7 CAF          1.4240     1.0420     0.1050 ca         1 0R0      -0.214000
      8 CAH          0.0300     0.8640     0.1020 ca         1 0R0       0.179100
      9 OAB         -0.7780     1.9640     0.1780 oh         1 0R0      -0.516100
     10 H1          -0.0610    -2.5570    -0.1180 ha         1 0R0       0.128000
     11 H2           2.4020    -2.2250    -0.1110 ha         1 0R0       0.124000
     12 H3           3.3600     0.0700     0.0310 ha         1 0R0       0.117000
     13 H4           1.8530     2.0390     0.1670 ha         1 0R0       0.119000
     14 H5          -0.2100     2.7620     0.2260 ho         1 0R0       0.473000
@<TRIPOS>BOND
     1     1     2 3   
     2     2     3 1   
     3     3     4 ar  
     4     3     8 ar  
     5     4     5 ar  
     6     4    10 1   
     7     5     6 ar  
     8     5    11 1   
     9     6     7 ar  
    10     6    12 1   
    11     7     8 ar  
    12     7    13 1   
    13     8     9 1   
    14     9    14 1   
@<TRIPOS>SUBSTRUCTURE
     1 0R0         1 TEMP              0 ****  ****    0 ROOT
