@<TRIPOS>MOLECULE
0R1
   14    15     1     0     0
SMALL
abcg2


@<TRIPOS>ATOM
      1 CAI         -0.2000     0.6380     0.0050 ca         1 0R1       0.076100
      2 CAD          0.9680     1.3910     0.0030 ca         1 0R1      -0.115000
      3 CAB          2.1470     0.6700    -0.0030 ca         1 0R1      -0.067000
      4 CAA          2.1640    -0.7360    -0.0070 ca         1 0R1      -0.143000
      5 CAC          0.9920    -1.4640    -0.0060 ca         1 0R1      -0.031000
      6 CAH         -0.2080    -0.7500     0.0000 ca         1 0R1      -0.252900
      7 CAE         -1.6030    -1.0560     0.0040 cc         1 0R1       0.380800
      8 NAF         -2.3190     0.0190     0.0090 nd         1 0R1      -0.286700
      9 OAG         -1.4620     1.0930     0.0100 os         1 0R1      -0.117100
     10 H1           0.9580     2.4720     0.0060 ha         1 0R1       0.138000
     11 H2           3.0880     1.2050    -0.0040 ha         1 0R1       0.119000
     12 H3           3.1150    -1.2500    -0.0120 ha         1 0R1       0.120000
     13 H4           1.0020    -2.5450    -0.0100 ha         1 0R1       0.124000
     14 H5          -2.0860    -2.0220     0.0030 h4         1 0R1       0.056800
@<TRIPOS>BOND
     1     1     2 ar  
     2     1     6 ar  
     3     1     9 1   
     4     2     3 ar  
     5     2    10 1   
     6     3     4 ar  
     7     3    11 1   
     8     4     5 ar  
     9     4    12 1   
    10     5     6 ar  
    11     5    13 1   
    12     6     7 1   
    13     7     8 2   
    14     7    14 1   
    15     8     9 1   
@<TRIPOS>SUBSTRUCTURE
     1 0R1         1 TEMP              0 ****  ****    0 ROOT
