@<TRIPOS>MOLECULE
0R1
   14    15     1     0     0
SMALL
No Charge or Current Charge


@<TRIPOS>ATOM
      1 CAI         -0.2160     0.6530     0.0050 ca         1 0R1       0.076100
      2 CAD          0.9730     1.3920     0.0030 ca         1 0R1      -0.115000
      3 CAB          2.1920     0.6770    -0.0030 ca         1 0R1      -0.067000
      4 CAA          2.1890    -0.7410    -0.0070 ca         1 0R1      -0.143000
      5 CAC          0.9710    -1.4550    -0.0060 ca         1 0R1      -0.031000
      6 CAH         -0.2130    -0.7060     0.0000 ca         1 0R1      -0.252900
      7 CAE         -1.5880    -1.0910     0.0040 cc         1 0R1       0.380800
      8 NAF         -2.3820    -0.0160     0.0100 nd         1 0R1      -0.286700
      9 OAG         -1.4940     1.1460     0.0100 os         1 0R1      -0.117100
     10 H1           0.9570     2.4790     0.0070 ha         1 0R1       0.138000
     11 H2           3.1360     1.2170    -0.0040 ha         1 0R1       0.119000
     12 H3           3.1330    -1.2830    -0.0120 ha         1 0R1       0.120000
     13 H4           0.9560    -2.5440    -0.0090 ha         1 0R1       0.124000
     14 H5          -2.0590    -2.0650     0.0020 h4         1 0R1       0.056800
@<TRIPOS>BOND
     1     1     2 ar  
     2     1     6 ar  
     3     1     9 1   
     4     2     3 ar  
     5     2    10 1   
     6     3     4 ar  
     7     3    11 1   
     8     4     5 ar  
     9     4    12 1   
    10     5     6 ar  
    11     5    13 1   
    12     6     7 1   
    13     7     8 2   
    14     7    14 1   
    15     8     9 1   
@<TRIPOS>SUBSTRUCTURE
     1 0R1         1 TEMP              0 ****  ****    0 ROOT
