@<TRIPOS>MOLECULE
0R2
   65    67     1     0     0
SMALL
bcc


@<TRIPOS>ATOM
      1 CL1          2.8240    -3.5880     3.9230 cl         1 0R2      -0.135400
      2 C1           2.0930    -2.4900     2.7980 ca         1 0R2       0.025400
      3 C2           2.1180    -2.7840     1.4450 ca         1 0R2      -0.130500
      4 C3           1.5260    -1.8980     0.5550 ca         1 0R2      -0.103500
      5 C4           1.4920    -1.3320     3.2700 ca         1 0R2      -0.130500
      6 C5           0.9110    -0.4600     2.3650 ca         1 0R2      -0.103500
      7 C6           0.9160    -0.7330     1.0010 ca         1 0R2      -0.092300
      8 C7           0.3490     0.2560     0.0100 c6         1 0R2       0.174000
      9 N1          -1.0610     0.5650     0.2860 n          1 0R2      -0.456800
     10 C8          -1.9530    -0.5840     0.2550 c3         1 0R2       0.059700
     11 C9          -2.4980    -0.7640    -1.1650 c          1 0R2       0.640100
     12 O4          -2.0060    -0.2400    -2.1320 o          1 0R2      -0.555000
     13 C11         -1.6340     1.7780     0.0420 c          1 0R2       0.721500
     14 O1          -2.8440     1.8880    -0.0720 o          1 0R2      -0.603500
     15 C12         -0.7310     2.9860    -0.0020 c6         1 0R2      -0.122700
     16 C13         -0.5360     3.5120     1.4280 c3         1 0R2      -0.204400
     17 C14         -1.8260     4.0980     2.0330 c          1 0R2       0.929600
     18 O2          -2.2030     3.6330     3.1260 o          1 0R2      -0.833800
     19 O3          -2.3760     5.0100     1.3830 o          1 0R2      -0.833800
     20 C15          0.5730     2.6590    -0.7150 c6         1 0R2      -0.069400
     21 C16          1.2620     1.4950    -0.0230 c6         1 0R2      -0.024400
     22 C17          2.5870     1.1300    -0.6450 ca         1 0R2      -0.056300
     23 C18          3.7370     1.0720     0.1330 ca         1 0R2      -0.117000
     24 C19          4.9590     0.7330    -0.4310 ca         1 0R2      -0.124000
     25 C20          5.0550     0.4430    -1.7830 ca         1 0R2      -0.132000
     26 C21          3.9030     0.4990    -2.5530 ca         1 0R2       0.024400
     27 CL2          3.9980     0.1390    -4.2480 cl         1 0R2      -0.131400
     28 C22          2.6780     0.8360    -2.0040 ca         1 0R2      -0.117000
     29 C10         -3.0350    -0.6260     1.3470 c3         1 0R2      -0.053400
     30 C23         -2.5520    -0.1830     2.7190 c3         1 0R2      -0.094100
     31 O5          -3.5090    -1.6080    -1.1780 os         1 0R2      -0.432900
     32 C24         -4.1960    -2.0250    -2.3960 c3         1 0R2       0.178800
     33 C25         -4.8220    -0.8290    -3.1020 c3         1 0R2      -0.104433
     34 C26         -3.2520    -2.8010    -3.3060 c3         1 0R2      -0.104433
     35 C27         -5.2890    -2.9480    -1.8740 c3         1 0R2      -0.104433
     36 H1           2.5880    -3.6880     1.0850 ha         1 0R2       0.143500
     37 H2           1.5460    -2.1230    -0.5050 ha         1 0R2       0.152500
     38 H3           1.4790    -1.1100     4.3290 ha         1 0R2       0.143500
     39 H4           0.4430     0.4450     2.7340 ha         1 0R2       0.152500
     40 H5           0.3870    -0.2090    -0.9830 h1         1 0R2       0.047700
     41 H6          -1.3180    -1.4610     0.4240 h1         1 0R2       0.059700
     42 H7          -1.2630     3.7530    -0.5670 hc         1 0R2       0.106700
     43 H8          -0.1510     2.7240     2.0770 hc         1 0R2       0.020700
     44 H9           0.2280     4.2970     1.3960 hc         1 0R2       0.020700
     45 H11          0.3670     2.4170    -1.7620 hc         1 0R2       0.045200
     46 H12          1.2290     3.5330    -0.7160 hc         1 0R2       0.045200
     47 H13          1.4670     1.7960     1.0080 hc         1 0R2       0.076700
     48 H14          3.6750     1.2880     1.1920 ha         1 0R2       0.140000
     49 H15          5.8460     0.6940     0.1870 ha         1 0R2       0.130000
     50 H16          6.0050     0.1790    -2.2270 ha         1 0R2       0.138000
     51 H17          1.8000     0.8690    -2.6370 ha         1 0R2       0.156000
     52 H18         -3.9000    -0.0350     1.0560 hc         1 0R2       0.051700
     53 H19         -3.3760    -1.6610     1.4160 hc         1 0R2       0.051700
     54 H20         -3.3510    -0.3170     3.4490 hc         1 0R2       0.043367
     55 H21         -1.7010    -0.7750     3.0570 hc         1 0R2       0.043367
     56 H22         -2.2630     0.8680     2.7410 hc         1 0R2       0.043367
     57 H23         -4.0840    -0.1960    -3.5900 hc         1 0R2       0.045367
     58 H24         -5.5060    -1.1920    -3.8700 hc         1 0R2       0.045367
     59 H25         -5.4000    -0.2210    -2.4050 hc         1 0R2       0.045367
     60 H26         -2.7920    -3.6340    -2.7730 hc         1 0R2       0.045367
     61 H27         -3.8250    -3.2150    -4.1370 hc         1 0R2       0.045367
     62 H28         -2.4670    -2.1760    -3.7250 hc         1 0R2       0.045367
     63 H29         -5.9850    -2.4150    -1.2240 hc         1 0R2       0.045367
     64 H30         -5.8560    -3.3550    -2.7110 hc         1 0R2       0.045367
     65 H31         -4.8700    -3.7860    -1.3150 hc         1 0R2       0.045367
@<TRIPOS>BOND
     1     1     2 1   
     2     2     3 ar  
     3     2     5 ar  
     4     3     4 ar  
     5     3    36 1   
     6     4     7 ar  
     7     4    37 1   
     8     5     6 ar  
     9     5    38 1   
    10     6     7 ar  
    11     6    39 1   
    12     7     8 1   
    13     8     9 1   
    14     8    21 1   
    15     8    40 1   
    16     9    10 1   
    17     9    13 1   
    18    10    11 1   
    19    10    29 1   
    20    10    41 1   
    21    11    12 2   
    22    11    31 1   
    23    13    14 2   
    24    13    15 1   
    25    15    16 1   
    26    15    20 1   
    27    15    42 1   
    28    16    17 1   
    29    16    43 1   
    30    16    44 1   
    31    17    18 1   
    32    17    19 1   
    33    20    21 1   
    34    20    45 1   
    35    20    46 1   
    36    21    22 1   
    37    21    47 1   
    38    22    23 ar  
    39    22    28 ar  
    40    23    24 ar  
    41    23    48 1   
    42    24    25 ar  
    43    24    49 1   
    44    25    26 ar  
    45    25    50 1   
    46    26    27 1   
    47    26    28 ar  
    48    28    51 1   
    49    29    30 1   
    50    29    52 1   
    51    29    53 1   
    52    30    54 1   
    53    30    55 1   
    54    30    56 1   
    55    31    32 1   
    56    32    33 1   
    57    32    34 1   
    58    32    35 1   
    59    33    57 1   
    60    33    58 1   
    61    33    59 1   
    62    34    60 1   
    63    34    61 1   
    64    34    62 1   
    65    35    63 1   
    66    35    64 1   
    67    35    65 1   
@<TRIPOS>SUBSTRUCTURE
     1 0R2         1 TEMP              0 ****  ****    0 ROOT
