@<TRIPOS>MOLECULE
0R2
   65    67     1     0     0
SMALL
No Charge or Current Charge


@<TRIPOS>ATOM
      1 Cl1          2.4240    -3.7990     4.0280 cl         1 0R2      -0.227000
      2 C1           1.8270    -2.6030     2.8860 ca         1 0R2       0.117000
      3 C2           1.7350    -2.9200     1.5220 ca         1 0R2      -0.112500
      4 C3           1.2580    -1.9650     0.6080 ca         1 0R2      -0.085500
      5 C4           1.4440    -1.3310     3.3400 ca         1 0R2      -0.112500
      6 C5           0.9670    -0.3740     2.4280 ca         1 0R2      -0.085500
      7 C6           0.8660    -0.6860     1.0560 ca         1 0R2      -0.092300
      8 C7           0.3540     0.3550     0.0460 c6         1 0R2       0.174000
      9 N1          -1.0990     0.6750     0.2330 n          1 0R2      -0.389800
     10 C8          -2.0450    -0.4940     0.1550 c3         1 0R2       0.059700
     11 C9          -2.7570    -0.6500    -1.2230 c          1 0R2       0.591100
     12 O4          -2.5320     0.0690    -2.1900 o          1 0R2      -0.506000
     13 C11         -1.6190     1.9880     0.0510 c          1 0R2       0.579000
     14 O1          -2.8230     2.1950    -0.0290 o          1 0R2      -0.528000
     15 C12         -0.6460     3.1820    -0.0540 c6         1 0R2      -0.122700
     16 C13         -0.4040     3.8000     1.3740 c3         1 0R2      -0.204400
     17 C14         -1.6010     4.6410     1.8590 c          1 0R2       0.719000
     18 O2          -2.4380     4.1020     2.5650 o          1 0R2      -0.728500
     19 O3          -1.6720     5.8040     1.4890 o          1 0R2      -0.728500
     20 C15          0.6770     2.7690    -0.7400 c6         1 0R2      -0.069400
     21 C16          1.3210     1.5750    -0.0070 c6         1 0R2      -0.024400
     22 C17          2.6770     1.1790    -0.6130 ca         1 0R2      -0.056300
     23 C18          3.8270     1.1350     0.2030 ca         1 0R2      -0.099000
     24 C19          5.0690     0.7560    -0.3350 ca         1 0R2      -0.106000
     25 C20          5.1720     0.4140    -1.6930 ca         1 0R2      -0.114000
     26 C21          4.0310     0.4500    -2.5100 ca         1 0R2       0.116000
     27 Cl2          4.1560     0.0150    -4.2090 cl         1 0R2      -0.223000
     28 C22          2.7890     0.8290    -1.9750 ca         1 0R2      -0.099000
     29 C10         -3.0280    -0.5960     1.3610 c3         1 0R2      -0.053400
     30 C23         -2.3560    -0.5490     2.7470 c3         1 0R2      -0.094100
     31 O5          -3.5190    -1.8000    -1.2570 os         1 0R2      -0.456100
     32 C24         -4.2580    -2.2230    -2.4270 c3         1 0R2       0.202000
     33 C25         -5.3000    -1.1380    -2.8050 c3         1 0R2      -0.104433
     34 C26         -3.2720    -2.5500    -3.5780 c3         1 0R2      -0.104433
     35 C27         -4.9800    -3.5110    -1.9710 c3         1 0R2      -0.104433
     36 H1           2.0350    -3.9050     1.1740 ha         1 0R2       0.125500
     37 H2           1.1940    -2.2210    -0.4470 ha         1 0R2       0.134500
     38 H3           1.5160    -1.0880     4.3970 ha         1 0R2       0.125500
     39 H4           0.6660     0.6060     2.7920 ha         1 0R2       0.134500
     40 H5           0.4080    -0.1110    -0.9480 h1         1 0R2       0.047700
     41 H6          -1.4400    -1.4070     0.2190 h1         1 0R2       0.059700
     42 H7          -1.1450     3.9630    -0.6450 hc         1 0R2       0.106700
     43 H8          -0.2270     2.9730     2.0730 hc         1 0R2       0.020700
     44 H9           0.4610     4.4660     1.2680 hc         1 0R2       0.020700
     45 H11          0.4700     2.5030    -1.7850 hc         1 0R2       0.045200
     46 H12          1.3750     3.6170    -0.7700 hc         1 0R2       0.045200
     47 H13          1.5110     1.9020     1.0220 hc         1 0R2       0.076700
     48 H14          3.7610     1.3900     1.2590 ha         1 0R2       0.122000
     49 H15          5.9510     0.7250     0.3020 ha         1 0R2       0.112000
     50 H16          6.1310     0.1190    -2.1110 ha         1 0R2       0.120000
     51 H17          1.9170     0.8430    -2.6240 ha         1 0R2       0.138000
     52 H18         -3.7760     0.2030     1.3020 hc         1 0R2       0.051700
     53 H19         -3.5850    -1.5380     1.2920 hc         1 0R2       0.051700
     54 H20         -3.1080    -0.6570     3.5380 hc         1 0R2       0.043367
     55 H21         -1.6320    -1.3660     2.8540 hc         1 0R2       0.043367
     56 H22         -1.8390     0.4050     2.9010 hc         1 0R2       0.043367
     57 H23         -4.8310    -0.2560    -3.2530 hc         1 0R2       0.045367
     58 H24         -6.0130    -1.5340    -3.5380 hc         1 0R2       0.045367
     59 H25         -5.8660    -0.8180    -1.9220 hc         1 0R2       0.045367
     60 H26         -2.4460    -3.1740    -3.2180 hc         1 0R2       0.045367
     61 H27         -3.7870    -3.0980    -4.3760 hc         1 0R2       0.045367
     62 H28         -2.8520    -1.6450    -4.0300 hc         1 0R2       0.045367
     63 H29         -5.6470    -3.3050    -1.1250 hc         1 0R2       0.045367
     64 H30         -5.5840    -3.9290    -2.7860 hc         1 0R2       0.045367
     65 H31         -4.2570    -4.2730    -1.6590 hc         1 0R2       0.045367
@<TRIPOS>BOND
     1     1     2 1   
     2     2     3 ar  
     3     2     5 ar  
     4     3     4 ar  
     5     3    36 1   
     6     4     7 ar  
     7     4    37 1   
     8     5     6 ar  
     9     5    38 1   
    10     6     7 ar  
    11     6    39 1   
    12     7     8 1   
    13     8     9 1   
    14     8    21 1   
    15     8    40 1   
    16     9    10 1   
    17     9    13 1   
    18    10    11 1   
    19    10    29 1   
    20    10    41 1   
    21    11    12 2   
    22    11    31 1   
    23    13    14 2   
    24    13    15 1   
    25    15    16 1   
    26    15    20 1   
    27    15    42 1   
    28    16    17 1   
    29    16    43 1   
    30    16    44 1   
    31    17    18 1   
    32    17    19 1   
    33    20    21 1   
    34    20    45 1   
    35    20    46 1   
    36    21    22 1   
    37    21    47 1   
    38    22    23 ar  
    39    22    28 ar  
    40    23    24 ar  
    41    23    48 1   
    42    24    25 ar  
    43    24    49 1   
    44    25    26 ar  
    45    25    50 1   
    46    26    27 1   
    47    26    28 ar  
    48    28    51 1   
    49    29    30 1   
    50    29    52 1   
    51    29    53 1   
    52    30    54 1   
    53    30    55 1   
    54    30    56 1   
    55    31    32 1   
    56    32    33 1   
    57    32    34 1   
    58    32    35 1   
    59    33    57 1   
    60    33    58 1   
    61    33    59 1   
    62    34    60 1   
    63    34    61 1   
    64    34    62 1   
    65    35    63 1   
    66    35    64 1   
    67    35    65 1   
@<TRIPOS>SUBSTRUCTURE
     1 0R2         1 TEMP              0 ****  ****    0 ROOT
