@<TRIPOS>MOLECULE
0R3
   60    62     1     0     0
SMALL
No Charge or Current Charge


@<TRIPOS>ATOM
      1 C17        -16.3340     2.5410   -15.0270 ca         1 0R3      -0.072000
      2 C16        -17.3110     3.5480   -14.9900 ca         1 0R3       0.125000
      3 Cl2        -17.0420     4.9950   -14.0250 cl         1 0R3      -0.230000
      4 C15        -18.5000     3.4080   -15.7230 ca         1 0R3      -0.114000
      5 C14        -18.7100     2.2560   -16.4990 ca         1 0R3      -0.113000
      6 C13        -17.7330     1.2470   -16.5390 ca         1 0R3      -0.110000
      7 C6         -16.5370     1.3780   -15.7990 ca         1 0R3      -0.045300
      8 C2         -15.4460     0.2960   -15.8530 c6         1 0R3      -0.027400
      9 C3         -15.9810    -1.1080   -15.5130 c6         1 0R3      -0.056400
     10 C4         -14.8260    -2.1490   -15.4150 c6         1 0R3      -0.091000
     11 C23        -13.8960    -1.9320   -14.1490 c3         1 0R3      -0.191400
     12 C25        -14.6410    -1.7820   -12.8060 c          1 0R3       0.704000
     13 O3         -14.9390    -0.6570   -12.4330 o          1 0R3      -0.733500
     14 O2         -14.8990    -2.7920   -12.1700 o          1 0R3      -0.733500
     15 C24        -15.4480    -3.5830   -15.3270 c3         1 0R3      -0.069100
     16 C5         -13.8960    -2.0800   -16.6700 c          1 0R3       0.556000
     17 O1         -13.1200    -3.0010   -16.9040 o          1 0R3      -0.587000
     18 N1         -13.9630    -0.9570   -17.5430 n          1 0R3      -0.429800
     19 C18        -13.2020    -0.9690   -18.8360 c3         1 0R3       0.084700
     20 C19        -11.6630    -0.8710   -18.6210 c3         1 0R3      -0.078400
     21 C22        -10.9510     0.1550   -19.5300 c3         1 0R3      -0.092100
     22 C20        -13.6800    -2.0820   -19.8310 c3         1 0R3       0.157300
     23 O4         -15.1130    -2.0700   -19.9020 oh         1 0R3      -0.683000
     24 C21        -13.1260    -1.9400   -21.2630 c3         1 0R3      -0.084100
     25 C1         -14.7470     0.2820   -17.2370 c6         1 0R3       0.175000
     26 C7         -13.9110     1.5600   -17.4120 ca         1 0R3      -0.092300
     27 C8         -12.7540     1.7750   -16.6340 ca         1 0R3      -0.084500
     28 C9         -11.9920     2.9440   -16.8040 ca         1 0R3      -0.108500
     29 C10        -12.3840     3.9050   -17.7490 ca         1 0R3       0.122000
     30 Cl1        -11.4290     5.3660   -17.9620 cl         1 0R3      -0.234000
     31 C11        -13.5360     3.7010   -18.5240 ca         1 0R3      -0.108500
     32 C12        -14.2990     2.5320   -18.3570 ca         1 0R3      -0.084500
     33 H1         -15.4170     2.6710   -14.4580 ha         1 0R3       0.146000
     34 H2         -19.2540     4.1910   -15.6920 ha         1 0R3       0.118000
     35 H3         -19.6280     2.1470   -17.0720 ha         1 0R3       0.107000
     36 H4         -17.9070     0.3670   -17.1540 ha         1 0R3       0.115000
     37 H5         -14.6980     0.5520   -15.0940 hc         1 0R3       0.103700
     38 H6         -16.5640    -1.0780   -14.5830 hc         1 0R3       0.057700
     39 H7         -16.6860    -1.4250   -16.2940 hc         1 0R3       0.057700
     40 H8         -13.2490    -2.8160   -14.0900 hc         1 0R3       0.032200
     41 H9         -13.3170    -1.0190   -14.3320 hc         1 0R3       0.032200
     42 H11        -16.1560    -3.6660   -14.4940 hc         1 0R3       0.041367
     43 H12        -15.9960    -3.8320   -16.2440 hc         1 0R3       0.041367
     44 H13        -14.6840    -4.3570   -15.1860 hc         1 0R3       0.041367
     45 H14        -13.4730    -0.0370   -19.3480 h1         1 0R3       0.051700
     46 H15        -11.2080    -1.8600   -18.7560 hc         1 0R3       0.056700
     47 H16        -11.4600    -0.5880   -17.5810 hc         1 0R3       0.056700
     48 H17         -9.8790     0.1830   -19.3050 hc         1 0R3       0.029367
     49 H18        -11.0680    -0.0930   -20.5900 hc         1 0R3       0.029367
     50 H19        -11.3570     1.1610   -19.3670 hc         1 0R3       0.029367
     51 H20        -13.3440    -3.0540   -19.4450 h1         1 0R3       0.063700
     52 H21        -15.4220    -1.8720   -18.9920 ho         1 0R3       0.450000
     53 H22        -12.0420    -2.1000   -21.2780 hc         1 0R3       0.038033
     54 H23        -13.5770    -2.6880   -21.9260 hc         1 0R3       0.038033
     55 H24        -13.3400    -0.9450   -21.6720 hc         1 0R3       0.038033
     56 H25        -15.5480     0.3100   -17.9900 h1         1 0R3       0.049700
     57 H26        -12.4390     1.0330   -15.9040 ha         1 0R3       0.128500
     58 H27        -11.0990     3.1040   -16.2050 ha         1 0R3       0.125500
     59 H28        -13.8370     4.4480   -19.2540 ha         1 0R3       0.125500
     60 H29        -15.1910     2.3840   -18.9620 ha         1 0R3       0.128500
@<TRIPOS>BOND
     1     1     2 ar  
     2     1     7 ar  
     3     1    33 1   
     4     2     3 1   
     5     2     4 ar  
     6     4     5 ar  
     7     4    34 1   
     8     5     6 ar  
     9     5    35 1   
    10     6     7 ar  
    11     6    36 1   
    12     7     8 1   
    13     8     9 1   
    14     8    25 1   
    15     8    37 1   
    16     9    10 1   
    17     9    38 1   
    18     9    39 1   
    19    10    11 1   
    20    10    15 1   
    21    10    16 1   
    22    11    12 1   
    23    11    40 1   
    24    11    41 1   
    25    12    13 1   
    26    12    14 1   
    27    15    42 1   
    28    15    43 1   
    29    15    44 1   
    30    16    17 2   
    31    16    18 1   
    32    18    19 1   
    33    18    25 1   
    34    19    20 1   
    35    19    22 1   
    36    19    45 1   
    37    20    21 1   
    38    20    46 1   
    39    20    47 1   
    40    21    48 1   
    41    21    49 1   
    42    21    50 1   
    43    22    23 1   
    44    22    24 1   
    45    22    51 1   
    46    23    52 1   
    47    24    53 1   
    48    24    54 1   
    49    24    55 1   
    50    25    26 1   
    51    25    56 1   
    52    26    27 ar  
    53    26    32 ar  
    54    27    28 ar  
    55    27    57 1   
    56    28    29 ar  
    57    28    58 1   
    58    29    30 1   
    59    29    31 ar  
    60    31    32 ar  
    61    31    59 1   
    62    32    60 1   
@<TRIPOS>SUBSTRUCTURE
     1 0R3         1 TEMP              0 ****  ****    0 ROOT
