@<TRIPOS>MOLECULE
0R3
   60    62     1     0     0
SMALL
abcg2


@<TRIPOS>ATOM
      1 C17        -16.3460     2.4970   -15.1110 ca         1 0R3      -0.072000
      2 C16        -17.3230     3.4830   -15.1090 ca         1 0R3       0.125000
      3 CL2        -17.0650     4.9310   -14.1530 cl         1 0R3      -0.230000
      4 C15        -18.4910     3.3540   -15.8450 ca         1 0R3      -0.114000
      5 C14        -18.6700     2.1990   -16.6010 ca         1 0R3      -0.113000
      6 C13        -17.7000     1.2050   -16.6160 ca         1 0R3      -0.110000
      7 C6         -16.5280     1.3430   -15.8700 ca         1 0R3      -0.045300
      8 C2         -15.4470     0.2890   -15.8920 c6         1 0R3      -0.027400
      9 C3         -15.9410    -1.1130   -15.5800 c6         1 0R3      -0.056400
     10 C4         -14.7670    -2.0870   -15.4510 c6         1 0R3      -0.091000
     11 C23        -13.8660    -1.7900   -14.2160 c3         1 0R3      -0.191400
     12 C25        -14.6350    -1.7000   -12.8840 c          1 0R3       0.704000
     13 O3         -15.0100    -0.5530   -12.5200 o          1 0R3      -0.733500
     14 O2         -14.8360    -2.7720   -12.2580 o          1 0R3      -0.733500
     15 C24        -15.3230    -3.5160   -15.3820 c3         1 0R3      -0.069100
     16 C5         -13.8500    -1.9980   -16.6780 c          1 0R3       0.556000
     17 O1         -13.0560    -2.9100   -16.9210 o          1 0R3      -0.587000
     18 N1         -13.9480    -0.9250   -17.5050 n          1 0R3      -0.429800
     19 C18        -13.2360    -0.9380   -18.8050 c3         1 0R3       0.084700
     20 C19        -11.7000    -0.9310   -18.6650 c3         1 0R3      -0.078400
     21 C22        -11.0290     0.1610   -19.4970 c3         1 0R3      -0.092100
     22 C20        -13.7740    -2.0600   -19.7110 c3         1 0R3       0.157300
     23 O4         -15.2090    -2.0030   -19.7800 oh         1 0R3      -0.683000
     24 C21        -13.2700    -1.9340   -21.1360 c3         1 0R3      -0.084100
     25 C1         -14.7420     0.2960   -17.2590 c6         1 0R3       0.175000
     26 C7         -13.8830     1.5380   -17.3910 ca         1 0R3      -0.092300
     27 C8         -12.7410     1.7010   -16.6090 ca         1 0R3      -0.084500
     28 C9         -11.9660     2.8470   -16.7050 ca         1 0R3      -0.108500
     29 C10        -12.3480     3.8440   -17.5950 ca         1 0R3       0.122000
     30 CL1        -11.3730     5.2940   -17.7280 cl         1 0R3      -0.234000
     31 C11        -13.4830     3.7120   -18.3810 ca         1 0R3      -0.108500
     32 C12        -14.2430     2.5530   -18.2720 ca         1 0R3      -0.084500
     33 H1         -15.4430     2.6280   -14.5300 ha         1 0R3       0.146000
     34 H2         -19.2390     4.1340   -15.8310 ha         1 0R3       0.118000
     35 H3         -19.5750     2.0810   -17.1830 ha         1 0R3       0.107000
     36 H4         -17.8550     0.3190   -17.2170 ha         1 0R3       0.115000
     37 H5         -14.7170     0.5620   -15.1320 hc         1 0R3       0.103700
     38 H6         -16.5190    -1.1080   -14.6560 hc         1 0R3       0.057700
     39 H7         -16.6030    -1.4610   -16.3780 hc         1 0R3       0.057700
     40 H8         -13.1270    -2.5900   -14.1550 hc         1 0R3       0.032200
     41 H9         -13.3310    -0.8530   -14.3720 hc         1 0R3       0.032200
     42 H11        -15.9880    -3.6070   -14.5230 hc         1 0R3       0.041367
     43 H12        -15.8880    -3.7490   -16.2870 hc         1 0R3       0.041367
     44 H13        -14.5220    -4.2450   -15.2770 hc         1 0R3       0.041367
     45 H14        -13.5330    -0.0070   -19.2860 h1         1 0R3       0.051700
     46 H15        -11.3020    -1.9100   -18.9370 hc         1 0R3       0.056700
     47 H16        -11.4490    -0.7860   -17.6150 hc         1 0R3       0.056700
     48 H17         -9.9440     0.1270   -19.3750 hc         1 0R3       0.029367
     49 H18        -11.2490     0.0500   -20.5600 hc         1 0R3       0.029367
     50 H19        -11.3710     1.1500   -19.1860 hc         1 0R3       0.029367
     51 H20        -13.4730    -3.0250   -19.2980 h1         1 0R3       0.063700
     52 H21        -15.5590    -2.1270   -18.8880 ho         1 0R3       0.450000
     53 H22        -12.1870    -2.0430   -21.1820 hc         1 0R3       0.038033
     54 H23        -13.7160    -2.7150   -21.7530 hc         1 0R3       0.038033
     55 H24        -13.5410    -0.9620   -21.5550 hc         1 0R3       0.038033
     56 H25        -15.5080     0.3350   -18.0370 h1         1 0R3       0.049700
     57 H26        -12.4420     0.9190   -15.9220 ha         1 0R3       0.128500
     58 H27        -11.0770     2.9660   -16.1010 ha         1 0R3       0.125500
     59 H28        -13.7660     4.4970   -19.0690 ha         1 0R3       0.125500
     60 H29        -15.1280     2.4390   -18.8850 ha         1 0R3       0.128500
@<TRIPOS>BOND
     1     1     2 ar  
     2     1     7 ar  
     3     1    33 1   
     4     2     3 1   
     5     2     4 ar  
     6     4     5 ar  
     7     4    34 1   
     8     5     6 ar  
     9     5    35 1   
    10     6     7 ar  
    11     6    36 1   
    12     7     8 1   
    13     8     9 1   
    14     8    25 1   
    15     8    37 1   
    16     9    10 1   
    17     9    38 1   
    18     9    39 1   
    19    10    11 1   
    20    10    15 1   
    21    10    16 1   
    22    11    12 1   
    23    11    40 1   
    24    11    41 1   
    25    12    13 1   
    26    12    14 1   
    27    15    42 1   
    28    15    43 1   
    29    15    44 1   
    30    16    17 2   
    31    16    18 1   
    32    18    19 1   
    33    18    25 1   
    34    19    20 1   
    35    19    22 1   
    36    19    45 1   
    37    20    21 1   
    38    20    46 1   
    39    20    47 1   
    40    21    48 1   
    41    21    49 1   
    42    21    50 1   
    43    22    23 1   
    44    22    24 1   
    45    22    51 1   
    46    23    52 1   
    47    24    53 1   
    48    24    54 1   
    49    24    55 1   
    50    25    26 1   
    51    25    56 1   
    52    26    27 ar  
    53    26    32 ar  
    54    27    28 ar  
    55    27    57 1   
    56    28    29 ar  
    57    28    58 1   
    58    29    30 1   
    59    29    31 ar  
    60    31    32 ar  
    61    31    59 1   
    62    32    60 1   
@<TRIPOS>SUBSTRUCTURE
     1 0R3         1 TEMP              0 ****  ****    0 ROOT
