@<TRIPOS>MOLECULE
0R4
   69    74     1     0     0
SMALL
No Charge or Current Charge


@<TRIPOS>ATOM
      1 O1          -3.3410     4.1840     0.1300 o          1 0R4      -0.576100
      2 C21         -4.3700     4.8140    -0.0820 c          1 0R4       0.608100
      3 C22         -4.3600     6.3360    -0.1870 c3         1 0R4      -0.182100
      4 N5          -5.6270     4.2450    -0.2430 ns         1 0R4      -0.149000
      5 C17         -6.0810     2.8960    -0.2350 ca         1 0R4      -0.026000
      6 C18         -7.4650     2.6810    -0.3380 ca         1 0R4      -0.160000
      7 C19         -7.9870     1.3800    -0.3410 ca         1 0R4      -0.089000
      8 C20         -7.1270     0.2760    -0.2380 ca         1 0R4      -0.122000
      9 C16         -5.2200     1.7790    -0.1370 ca         1 0R4      -0.097000
     10 C15         -5.7210     0.4460    -0.1310 cp         1 0R4      -0.119500
     11 C3          -4.7930    -0.7390    -0.0240 cp         1 0R4       0.420500
     12 C2          -5.2240    -2.0050     0.4640 ca         1 0R4      -0.170000
     13 C1          -4.3150    -3.0770     0.5490 ca         1 0R4      -0.026000
     14 N1          -3.5060    -0.5430    -0.4060 nb         1 0R4      -0.656000
     15 C5          -2.6460    -1.5790    -0.3150 ca         1 0R4       0.353500
     16 C4          -2.9990    -2.8300     0.1430 ca         1 0R4       0.044400
     17 N2          -1.9430    -3.7260     0.1570 nc         1 0R4      -0.608100
     18 C6          -0.9250    -2.9620    -0.2900 cd         1 0R4       0.527400
     19 C23          0.4410    -3.4970    -0.4140 ca         1 0R4      -0.259900
     20 C24          0.9330    -4.5000     0.4350 ca         1 0R4       0.650900
     21 N7           0.2770    -5.0300     1.4620 nv         1 0R4      -1.055900
     22 N6           2.1330    -5.0570     0.3570 nb         1 0R4      -0.764000
     23 C25          2.9490    -4.6250    -0.6280 ca         1 0R4       0.409900
     24 C26          2.5660    -3.6410    -1.5510 ca         1 0R4      -0.240000
     25 C27          1.2890    -3.0690    -1.4550 ca         1 0R4      -0.003000
     26 N3          -1.3240    -1.6560    -0.6510 na         1 0R4      -0.192100
     27 C7          -0.3910    -0.6700    -0.3250 ca         1 0R4       0.006800
     28 C8           0.0680    -0.5100     0.9990 ca         1 0R4      -0.097000
     29 C9           1.0170     0.4810     1.3040 ca         1 0R4      -0.087000
     30 C12          0.0880     0.1890    -1.3310 ca         1 0R4      -0.097000
     31 C11          1.0370     1.1800    -1.0260 ca         1 0R4      -0.087000
     32 C10          1.5080     1.3290     0.2930 ca         1 0R4      -0.114300
     33 C13          2.5500     2.3850     0.6180 c3         1 0R4       0.147300
     34 N4           3.8960     1.8430     0.4620 ns         1 0R4      -0.501900
     35 C14          5.0530     2.5530     0.6830 c          1 0R4       0.613700
     36 O2           5.0170     3.7250     1.0350 o          1 0R4      -0.595100
     37 C28          6.3590     1.8110     0.4660 ca         1 0R4      -0.124600
     38 C33          6.4000     0.4520     0.0560 ca         1 0R4      -0.135000
     39 C29          7.5850     2.4860     0.6760 ca         1 0R4      -0.076000
     40 C30          8.8140     1.8290     0.4840 ca         1 0R4      -0.093000
     41 C31          8.8380     0.4850     0.0790 ca         1 0R4      -0.133000
     42 C32          7.6320    -0.1970    -0.1330 ca         1 0R4       0.164000
     43 F1           7.6540    -1.4900    -0.5220 f          1 0R4      -0.177000
     44 H1          -4.8020     6.6310    -1.1450 hc         1 0R4       0.063700
     45 H2          -5.0750     6.7480     0.5350 hc         1 0R4       0.063700
     46 H3          -3.3590     6.7630    -0.0540 hc         1 0R4       0.063700
     47 H4          -6.3650     4.9200    -0.3970 hn         1 0R4       0.147000
     48 H5          -8.1440     3.5270    -0.4190 ha         1 0R4       0.108000
     49 H6          -9.0600     1.2250    -0.4260 ha         1 0R4       0.113000
     50 H7          -7.5640    -0.7190    -0.2610 ha         1 0R4       0.115000
     51 H8          -4.1470     1.9260    -0.0600 ha         1 0R4       0.168000
     52 H9          -6.2480    -2.1520     0.7910 ha         1 0R4       0.125000
     53 H10         -4.6170    -4.0520     0.9230 ha         1 0R4       0.132000
     54 H11         -0.7350    -4.9590     1.3960 hn         1 0R4       0.498000
     55 H12          0.6460    -5.9170     1.7780 hn         1 0R4       0.498000
     56 H13          3.9340    -5.0870    -0.6840 h4         1 0R4       0.016100
     57 H14          3.2530    -3.3360    -2.3350 ha         1 0R4       0.127000
     58 H15          0.9700    -2.3230    -2.1800 ha         1 0R4       0.124000
     59 H16         -0.3030    -1.1550     1.7920 ha         1 0R4       0.135000
     60 H17          1.3730     0.5870     2.3260 ha         1 0R4       0.127500
     61 H18         -0.2700     0.0830    -2.3530 ha         1 0R4       0.135000
     62 H19          1.4080     1.8290    -1.8160 ha         1 0R4       0.127500
     63 H20          2.4300     3.2490    -0.0500 h1         1 0R4       0.066700
     64 H21          2.4200     2.7350     1.6520 h1         1 0R4       0.066700
     65 H22          3.9920     0.8790     0.1730 hn         1 0R4       0.317500
     66 H23          5.4930    -0.1170    -0.1200 ha         1 0R4       0.131000
     67 H24          7.5900     3.5280     0.9900 ha         1 0R4       0.139000
     68 H25          9.7470     2.3640     0.6510 ha         1 0R4       0.123000
     69 H26          9.7850    -0.0270    -0.0700 ha         1 0R4       0.135000
@<TRIPOS>BOND
     1     1     2 2   
     2     2     3 1   
     3     2     4 1   
     4     3    44 1   
     5     3    45 1   
     6     3    46 1   
     7     4     5 1   
     8     4    47 1   
     9     5     6 ar  
    10     5     9 ar  
    11     6     7 ar  
    12     6    48 1   
    13     7     8 ar  
    14     7    49 1   
    15     8    10 ar  
    16     8    50 1   
    17     9    10 ar  
    18     9    51 1   
    19    10    11 1   
    20    11    12 ar  
    21    11    14 ar  
    22    12    13 ar  
    23    12    52 1   
    24    13    16 ar  
    25    13    53 1   
    26    14    15 ar  
    27    15    16 ar  
    28    15    26 1   
    29    16    17 1   
    30    17    18 2   
    31    18    19 1   
    32    18    26 1   
    33    19    20 ar  
    34    19    25 ar  
    35    20    21 1   
    36    20    22 ar  
    37    21    54 1   
    38    21    55 1   
    39    22    23 ar  
    40    23    24 ar  
    41    23    56 1   
    42    24    25 ar  
    43    24    57 1   
    44    25    58 1   
    45    26    27 1   
    46    27    28 ar  
    47    27    30 ar  
    48    28    29 ar  
    49    28    59 1   
    50    29    32 ar  
    51    29    60 1   
    52    30    31 ar  
    53    30    61 1   
    54    31    32 ar  
    55    31    62 1   
    56    32    33 1   
    57    33    34 1   
    58    33    63 1   
    59    33    64 1   
    60    34    35 1   
    61    34    65 1   
    62    35    36 2   
    63    35    37 1   
    64    37    38 ar  
    65    37    39 ar  
    66    38    42 ar  
    67    38    66 1   
    68    39    40 ar  
    69    39    67 1   
    70    40    41 ar  
    71    40    68 1   
    72    41    42 ar  
    73    41    69 1   
    74    42    43 1   
@<TRIPOS>SUBSTRUCTURE
     1 0R4         1 TEMP              0 ****  ****    0 ROOT
