@<TRIPOS>MOLECULE
0R4
   69    74     1     0     0
SMALL
bcc


@<TRIPOS>ATOM
      1 O1          -2.0430     3.6090    -0.5530 o          1 0R4      -0.576100
      2 C21         -2.8700     4.5040    -0.5210 c          1 0R4       0.675100
      3 C22         -2.4710     5.9570    -0.5930 c3         1 0R4      -0.182100
      4 N5          -4.2110     4.2980    -0.4390 ns         1 0R4      -0.475100
      5 C17         -4.9300     3.1000    -0.3980 ca         1 0R4       0.066600
      6 C18         -6.3230     3.2050    -0.3310 ca         1 0R4      -0.178000
      7 C19         -7.1030     2.0640    -0.2880 ca         1 0R4      -0.107000
      8 C20         -6.5210     0.8050    -0.3160 ca         1 0R4      -0.140000
      9 C16         -4.3440     1.8380    -0.4220 ca         1 0R4      -0.115000
     10 C15         -5.1350     0.6870    -0.3870 cp         1 0R4      -0.119500
     11 C3          -4.4650    -0.6320    -0.4210 cp         1 0R4       0.485800
     12 C2          -5.1530    -1.8060    -0.7810 ca         1 0R4      -0.253300
     13 C1          -4.5050    -3.0300    -0.8210 ca         1 0R4      -0.044000
     14 N1          -3.1680    -0.6390    -0.1150 nb         1 0R4      -0.656000
     15 C5          -2.5740    -1.8040    -0.1730 ca         1 0R4       0.418800
     16 C4          -3.1530    -3.0340    -0.5030 ca         1 0R4      -0.020900
     17 N2          -2.2100    -4.0210    -0.4460 nc         1 0R4      -0.608100
     18 C6          -1.0930    -3.4320    -0.0990 cd         1 0R4       0.527400
     19 C23          0.1850    -4.1200     0.0400 ca         1 0R4      -0.325200
     20 C24          0.2490    -5.4550     0.5240 ca         1 0R4       0.716200
     21 N7          -0.8570    -6.1410     0.8890 nv         1 0R4      -0.945500
     22 N6           1.4170    -6.0820     0.6840 nb         1 0R4      -0.764000
     23 C25          2.5370    -5.4580     0.3560 ca         1 0R4       0.475200
     24 C26          2.5840    -4.1770    -0.1670 ca         1 0R4      -0.323300
     25 C27          1.3800    -3.5100    -0.3210 ca         1 0R4      -0.021000
     26 N3          -1.2520    -2.0770     0.0940 na         1 0R4      -0.192100
     27 C7          -0.3360    -1.1360     0.6240 ca         1 0R4       0.006800
     28 C8           0.2700    -1.3710     1.8490 ca         1 0R4      -0.115000
     29 C9           1.1660    -0.4420     2.3560 ca         1 0R4      -0.105000
     30 C12         -0.0760     0.0350    -0.0760 ca         1 0R4      -0.115000
     31 C11          0.8020     0.9660     0.4520 ca         1 0R4      -0.105000
     32 C10          1.4420     0.7330     1.6680 ca         1 0R4      -0.114300
     33 C13          2.4300     1.7320     2.2140 c3         1 0R4       0.147300
     34 N4           3.6430     1.7860     1.4270 ns         1 0R4      -0.568900
     35 C14          3.9070     2.7380     0.5180 c          1 0R4       0.680700
     36 O2           3.1820     3.7020     0.3150 o          1 0R4      -0.595100
     37 C28          5.1830     2.5650    -0.2460 ca         1 0R4      -0.124600
     38 C33          5.6740     1.3050    -0.5780 ca         1 0R4      -0.153000
     39 C29          5.8650     3.7060    -0.6610 ca         1 0R4      -0.094000
     40 C30          7.0460     3.5870    -1.3770 ca         1 0R4      -0.111000
     41 C31          7.5480     2.3370    -1.7130 ca         1 0R4      -0.151000
     42 C32          6.8430     1.2200    -1.3090 ca         1 0R4       0.128900
     43 F1           7.3020     0.0060    -1.6440 f          1 0R4      -0.141900
     44 H1          -2.1110     6.1760    -1.5990 hc         1 0R4       0.063700
     45 H2          -3.2800     6.6490    -0.3650 hc         1 0R4       0.063700
     46 H3          -1.6490     6.1430     0.0960 hc         1 0R4       0.063700
     47 H4          -4.7830     5.1280    -0.4140 hn         1 0R4       0.313500
     48 H5          -6.7930     4.1810    -0.3090 ha         1 0R4       0.126000
     49 H6          -8.1790     2.1590    -0.2290 ha         1 0R4       0.131000
     50 H7          -7.1570    -0.0680    -0.2630 ha         1 0R4       0.133000
     51 H8          -3.2730     1.7320    -0.4680 ha         1 0R4       0.186000
     52 H9          -6.1980    -1.7610    -1.0480 ha         1 0R4       0.143000
     53 H10         -5.0310    -3.9340    -1.0970 ha         1 0R4       0.150000
     54 H11         -1.7460    -5.8550     0.5120 hn         1 0R4       0.442800
     55 H12         -0.7380    -7.1250     1.0650 hn         1 0R4       0.442800
     56 H13          3.4540    -6.0180     0.5110 h4         1 0R4       0.016100
     57 H14          3.5230    -3.7200    -0.4440 ha         1 0R4       0.145000
     58 H15          1.3760    -2.5140    -0.7410 ha         1 0R4       0.142000
     59 H16          0.0510    -2.2750     2.4030 ha         1 0R4       0.153000
     60 H17          1.6450    -0.6360     3.3080 ha         1 0R4       0.145500
     61 H18         -0.5560     0.2220    -1.0270 ha         1 0R4       0.153000
     62 H19          0.9890     1.8830    -0.0910 ha         1 0R4       0.145500
     63 H20          1.9900     2.7280     2.2410 h1         1 0R4       0.066700
     64 H21          2.6980     1.4700     3.2380 h1         1 0R4       0.066700
     65 H22          4.3160     1.0530     1.5800 hn         1 0R4       0.317500
     66 H23          5.1530     0.3960    -0.3060 ha         1 0R4       0.149000
     67 H24          5.4780     4.6850    -0.4160 ha         1 0R4       0.157000
     68 H25          7.5830     4.4750    -1.6810 ha         1 0R4       0.141000
     69 H26          8.4630     2.2340    -2.2810 ha         1 0R4       0.153000
@<TRIPOS>BOND
     1     1     2 2   
     2     2     3 1   
     3     2     4 1   
     4     3    44 1   
     5     3    45 1   
     6     3    46 1   
     7     4     5 1   
     8     4    47 1   
     9     5     6 ar  
    10     5     9 ar  
    11     6     7 ar  
    12     6    48 1   
    13     7     8 ar  
    14     7    49 1   
    15     8    10 ar  
    16     8    50 1   
    17     9    10 ar  
    18     9    51 1   
    19    10    11 1   
    20    11    12 ar  
    21    11    14 ar  
    22    12    13 ar  
    23    12    52 1   
    24    13    16 ar  
    25    13    53 1   
    26    14    15 ar  
    27    15    16 ar  
    28    15    26 1   
    29    16    17 1   
    30    17    18 2   
    31    18    19 1   
    32    18    26 1   
    33    19    20 ar  
    34    19    25 ar  
    35    20    21 1   
    36    20    22 ar  
    37    21    54 1   
    38    21    55 1   
    39    22    23 ar  
    40    23    24 ar  
    41    23    56 1   
    42    24    25 ar  
    43    24    57 1   
    44    25    58 1   
    45    26    27 1   
    46    27    28 ar  
    47    27    30 ar  
    48    28    29 ar  
    49    28    59 1   
    50    29    32 ar  
    51    29    60 1   
    52    30    31 ar  
    53    30    61 1   
    54    31    32 ar  
    55    31    62 1   
    56    32    33 1   
    57    33    34 1   
    58    33    63 1   
    59    33    64 1   
    60    34    35 1   
    61    34    65 1   
    62    35    36 2   
    63    35    37 1   
    64    37    38 ar  
    65    37    39 ar  
    66    38    42 ar  
    67    38    66 1   
    68    39    40 ar  
    69    39    67 1   
    70    40    41 ar  
    71    40    68 1   
    72    41    42 ar  
    73    41    69 1   
    74    42    43 1   
@<TRIPOS>SUBSTRUCTURE
     1 0R4         1 TEMP              0 ****  ****    0 ROOT
