@<TRIPOS>MOLECULE
0R9
   46    49     1     0     0
SMALL
bcc


@<TRIPOS>ATOM
      1 C1           8.7430     1.2130     0.2550 c3         1 0R9      -0.111100
      2 C2           7.8320     0.0080     0.3840 c3         1 0R9       0.102000
      3 N3           6.4410     0.4050     0.2580 ns         1 0R9      -0.577900
      4 C4           5.4330    -0.4480     0.4900 c          1 0R9       0.698300
      5 O5           5.5960    -1.6080     0.8390 o          1 0R9      -0.588100
      6 C6           4.0650     0.0870     0.3030 cc         1 0R9      -0.152300
      7 C7           2.9380    -0.6580     0.0880 cd         1 0R9      -0.095200
      8 C8           1.8690     0.2660    -0.0610 ca         1 0R9      -0.227100
      9 C9           0.4930     0.1950    -0.2750 ca         1 0R9       0.075800
     10 C10         -0.2430     1.3700    -0.3190 cp         1 0R9      -0.105300
     11 C11          0.4440     2.5830    -0.1130 ca         1 0R9       0.454200
     12 N12          1.7410     2.6980     0.0930 nb         1 0R9      -0.687000
     13 C13          2.4140     1.5600     0.1010 ca         1 0R9       0.443800
     14 N14          3.7480     1.4230     0.3030 na         1 0R9      -0.270100
     15 C15         -1.6910     1.4060    -0.5990 cp         1 0R9      -0.211300
     16 C16         -2.5760     2.0700     0.2400 ca         1 0R9      -0.049000
     17 C17         -3.9290     2.1080    -0.0690 ca         1 0R9      -0.243900
     18 C18         -4.3340     1.4620    -1.2300 ca         1 0R9       0.426200
     19 N19         -3.5030     0.8290    -2.0530 nb         1 0R9      -0.703000
     20 C20         -2.2170     0.8070    -1.7420 ca         1 0R9       0.392200
     21 C21         -4.9280     2.8200     0.8340 c          1 0R9       0.930200
     22 O22         -4.4640     3.3410     1.8650 o          1 0R9      -0.817300
     23 O23         -6.1140     2.8160     0.4580 o          1 0R9      -0.817300
     24 N24         -0.1220    -1.0640    -0.4240 na         1 0R9       0.190300
     25 C25          0.2230    -2.0390    -1.3000 cc         1 0R9      -0.133300
     26 C26         -0.6690    -3.0610    -1.1170 cd         1 0R9      -0.266300
     27 C27         -1.5120    -2.5900    -0.0950 cd         1 0R9       0.192600
     28 N28         -1.1740    -1.3880     0.3150 nc         1 0R9      -0.412800
     29 C29         -2.6430    -3.3120     0.5420 c3         1 0R9       0.658600
     30 F30         -3.3390    -4.0060    -0.3660 f          1 0R9      -0.229300
     31 F31         -2.2170    -4.1960     1.4560 f          1 0R9      -0.229300
     32 F32         -3.4850    -2.4830     1.1580 f          1 0R9      -0.229300
     33 H1           8.6330     1.6990    -0.7150 hc         1 0R9       0.041367
     34 H2           8.5410     1.9490     1.0340 hc         1 0R9       0.041367
     35 H3           9.7810     0.9000     0.3510 hc         1 0R9       0.041367
     36 H4           8.0820    -0.7370    -0.3760 h1         1 0R9       0.051700
     37 H5           7.9760    -0.4670     1.3550 h1         1 0R9       0.051700
     38 H6           6.2550     1.2740    -0.2170 hn         1 0R9       0.311500
     39 H7           2.8980    -1.7330     0.0270 ha         1 0R9       0.175000
     40 H8          -0.1220     3.5080    -0.1450 h4         1 0R9       0.044100
     41 H9           4.3610     2.1860     0.5480 hn         1 0R9       0.307700
     42 H10         -2.2200     2.5460     1.1450 ha         1 0R9       0.154000
     43 H11         -5.3810     1.4620    -1.5090 h4         1 0R9       0.037100
     44 H12         -1.5610     0.2980    -2.4430 h4         1 0R9      -0.011900
     45 H14          1.0420    -1.9230    -1.9910 h4         1 0R9       0.178000
     46 H15         -0.7080    -3.9990    -1.6440 ha         1 0R9       0.170000
@<TRIPOS>BOND
     1     1     2 1   
     2     1    33 1   
     3     1    34 1   
     4     1    35 1   
     5     2     3 1   
     6     2    36 1   
     7     2    37 1   
     8     3     4 1   
     9     3    38 1   
    10     4     5 2   
    11     4     6 1   
    12     6     7 2   
    13     6    14 1   
    14     7     8 1   
    15     7    39 1   
    16     8     9 ar  
    17     8    13 ar  
    18     9    10 ar  
    19     9    24 1   
    20    10    11 ar  
    21    10    15 1   
    22    11    12 ar  
    23    11    40 1   
    24    12    13 ar  
    25    13    14 1   
    26    14    41 1   
    27    15    16 ar  
    28    15    20 ar  
    29    16    17 ar  
    30    16    42 1   
    31    17    18 ar  
    32    17    21 1   
    33    18    19 ar  
    34    18    43 1   
    35    19    20 ar  
    36    20    44 1   
    37    21    22 1   
    38    21    23 1   
    39    24    25 1   
    40    24    28 1   
    41    25    26 2   
    42    25    45 1   
    43    26    27 1   
    44    26    46 1   
    45    27    28 2   
    46    27    29 1   
    47    29    30 1   
    48    29    31 1   
    49    29    32 1   
@<TRIPOS>SUBSTRUCTURE
     1 0R9         1 TEMP              0 ****  ****    0 ROOT
