@<TRIPOS>MOLECULE
0R9
   46    49     1     0     0
SMALL
No Charge or Current Charge


@<TRIPOS>ATOM
      1 C1           8.8600     1.0270     0.6830 c3         1 0R9      -0.111100
      2 C2           7.9040    -0.1630     0.5080 c3         1 0R9       0.102000
      3 N3           6.5200     0.2780     0.3510 ns         1 0R9      -0.510900
      4 C4           5.4510    -0.5700     0.1760 c          1 0R9       0.631300
      5 O5           5.5830    -1.7860     0.1390 o          1 0R9      -0.588100
      6 C6           4.1440     0.1300     0.0400 cc         1 0R9      -0.152300
      7 C7           2.9320    -0.5180    -0.1440 cd         1 0R9      -0.145200
      8 C8           1.8640     0.4450    -0.2390 ca         1 0R9      -0.161800
      9 C9           0.4860     0.2900    -0.4130 ca         1 0R9       0.075800
     10 C10         -0.3290     1.4580    -0.4650 cp         1 0R9      -0.040000
     11 C11          0.3620     2.6960    -0.3060 ca         1 0R9       0.388900
     12 N12          1.7090     2.8210    -0.1330 nb         1 0R9      -0.687000
     13 C13          2.4290     1.6860    -0.1070 ca         1 0R9       0.378500
     14 N14          3.7890     1.5070     0.0560 na         1 0R9      -0.320400
     15 C15         -1.8160     1.4470    -0.6710 cp         1 0R9      -0.146000
     16 C16         -2.6730     2.1600     0.1990 ca         1 0R9      -0.031000
     17 C17         -4.0660     2.1410    -0.0280 ca         1 0R9      -0.178600
     18 C18         -4.5520     1.4130    -1.1270 ca         1 0R9       0.360900
     19 N19         -3.7490     0.7340    -1.9820 nb         1 0R9      -0.703000
     20 C20         -2.4190     0.7560    -1.7510 ca         1 0R9       0.326900
     21 C21         -5.0250     2.8720     0.8680 c          1 0R9       0.719600
     22 O22         -4.5710     3.5120     1.8050 o          1 0R9      -0.712000
     23 O23         -6.2200     2.8020     0.6250 o          1 0R9      -0.712000
     24 N24         -0.1650    -0.9410    -0.5200 na         1 0R9       0.241000
     25 C25          0.0170    -1.8020    -1.5890 cc         1 0R9      -0.166000
     26 C26         -0.7540    -2.8700    -1.2250 cd         1 0R9      -0.183000
     27 C27         -1.3250    -2.5870     0.0460 cd         1 0R9       0.127300
     28 N28         -0.9540    -1.4020     0.5080 nc         1 0R9      -0.412800
     29 C29         -2.2500    -3.4930     0.8440 c3         1 0R9       0.294700
     30 F30         -2.5460    -4.6340     0.1800 f          1 0R9      -0.108000
     31 F31         -1.7000    -3.8600     2.0250 f          1 0R9      -0.108000
     32 F32         -3.4280    -2.8890     1.1270 f          1 0R9      -0.108000
     33 H1           8.8200     1.6880    -0.1910 hc         1 0R9       0.041367
     34 H2           8.5940     1.6100     1.5740 hc         1 0R9       0.041367
     35 H3           9.8910     0.6730     0.8000 hc         1 0R9       0.041367
     36 H4           8.1970    -0.7420    -0.3780 h1         1 0R9       0.051700
     37 H5           7.9710    -0.8200     1.3860 h1         1 0R9       0.051700
     38 H6           6.3210     1.2690     0.3690 hn         1 0R9       0.311500
     39 H7           2.8150    -1.5990    -0.2030 ha         1 0R9       0.225000
     40 H8          -0.1970     3.6310    -0.3340 h4         1 0R9       0.044100
     41 H9           4.4260     2.2840     0.1730 hn         1 0R9       0.358000
     42 H10         -2.2580     2.7080     1.0420 ha         1 0R9       0.136000
     43 H11         -5.6180     1.3660    -1.3490 h4         1 0R9       0.037100
     44 H12         -1.8070     0.2110    -2.4680 h4         1 0R9      -0.011900
     45 H14          0.6310    -1.5850    -2.4550 h4         1 0R9       0.160000
     46 H15         -0.8980    -3.7770    -1.8040 ha         1 0R9       0.152000
@<TRIPOS>BOND
     1     1     2 1   
     2     1    33 1   
     3     1    34 1   
     4     1    35 1   
     5     2     3 1   
     6     2    36 1   
     7     2    37 1   
     8     3     4 1   
     9     3    38 1   
    10     4     5 2   
    11     4     6 1   
    12     6     7 2   
    13     6    14 1   
    14     7     8 1   
    15     7    39 1   
    16     8     9 ar  
    17     8    13 ar  
    18     9    10 ar  
    19     9    24 1   
    20    10    11 ar  
    21    10    15 1   
    22    11    12 ar  
    23    11    40 1   
    24    12    13 ar  
    25    13    14 1   
    26    14    41 1   
    27    15    16 ar  
    28    15    20 ar  
    29    16    17 ar  
    30    16    42 1   
    31    17    18 ar  
    32    17    21 1   
    33    18    19 ar  
    34    18    43 1   
    35    19    20 ar  
    36    20    44 1   
    37    21    22 1   
    38    21    23 1   
    39    24    25 1   
    40    24    28 1   
    41    25    26 2   
    42    25    45 1   
    43    26    27 1   
    44    26    46 1   
    45    27    28 2   
    46    27    29 1   
    47    29    30 1   
    48    29    31 1   
    49    29    32 1   
@<TRIPOS>SUBSTRUCTURE
     1 0R9         1 TEMP              0 ****  ****    0 ROOT
