@<TRIPOS>MOLECULE
0RA
   33    35     1     0     0
SMALL
No Charge or Current Charge


@<TRIPOS>ATOM
      1 C1          -1.0530     3.1040     0.0730 ca         1 0RA      -0.119000
      2 C2          -2.2430     2.3740     0.2190 ca         1 0RA      -0.110000
      3 C3          -2.1990     0.9780     0.3880 ca         1 0RA      -0.043300
      4 C4          -0.9540     0.3220     0.4060 ca         1 0RA      -0.104000
      5 C5           0.2630     1.0370     0.2600 cp         1 0RA      -0.044000
      6 C6           0.1860     2.4430     0.0930 ca         1 0RA      -0.126000
      7 C7           1.5840     0.3310     0.2810 cp         1 0RA      -0.093000
      8 C8           2.6910     0.8030    -0.4700 ca         1 0RA      -0.027000
      9 C9           3.8820     0.0740    -0.3830 ca         1 0RA      -0.140800
     10 C10          5.1410     0.3050    -1.0230 cc         1 0RA      -0.232200
     11 C11          5.9890    -0.7070    -0.6050 cd         1 0RA      -0.169100
     12 N1           5.2720    -1.5540     0.2790 na         1 0RA      -0.330400
     13 C12          3.9880    -1.0550     0.3950 ca         1 0RA       0.362500
     14 N2           2.9640    -1.5340     1.1230 nb         1 0RA      -0.690000
     15 C13          1.7910    -0.8480     1.0590 ca         1 0RA       0.371900
     16 C14         -3.4900     0.1820     0.5400 c3         1 0RA      -0.023100
     17 C15         -4.0010    -0.3710    -0.8110 c3         1 0RA      -0.205400
     18 C16         -5.3030    -1.1590    -0.5970 c          1 0RA       0.718000
     19 O1          -5.2210    -2.3500    -0.3390 o          1 0RA      -0.739000
     20 O2          -6.3600    -0.5490    -0.6440 o          1 0RA      -0.739000
     21 H1          -1.0910     4.1830    -0.0540 ha         1 0RA       0.097000
     22 H2          -3.1990     2.8930     0.1990 ha         1 0RA       0.114000
     23 H3          -0.9340    -0.7590     0.5190 ha         1 0RA       0.117000
     24 H4           1.0940     3.0310    -0.0080 ha         1 0RA       0.097000
     25 H5           2.6230     1.6850    -1.1010 ha         1 0RA       0.122000
     26 H6           5.4000     1.1120    -1.7070 ha         1 0RA       0.202000
     27 H7           7.0310    -0.8860    -0.8650 h4         1 0RA       0.205000
     28 H8           5.6200    -2.3810     0.7490 hn         1 0RA       0.354000
     29 H9           0.9830    -1.2520     1.6680 h4         1 0RA       0.028100
     30 H10         -3.3340    -0.6520     1.2360 hc         1 0RA       0.051700
     31 H11         -4.2690     0.8100     0.9910 hc         1 0RA       0.051700
     32 H12         -4.1800     0.5060    -1.4450 hc         1 0RA       0.021700
     33 H13         -3.2080    -1.0320    -1.1840 hc         1 0RA       0.021700
@<TRIPOS>BOND
     1     1     2 ar  
     2     1     6 ar  
     3     1    21 1   
     4     2     3 ar  
     5     2    22 1   
     6     3     4 ar  
     7     3    16 1   
     8     4     5 ar  
     9     4    23 1   
    10     5     6 ar  
    11     5     7 1   
    12     6    24 1   
    13     7     8 ar  
    14     7    15 ar  
    15     8     9 ar  
    16     8    25 1   
    17     9    10 1   
    18     9    13 ar  
    19    10    11 2   
    20    10    26 1   
    21    11    12 1   
    22    11    27 1   
    23    12    13 1   
    24    12    28 1   
    25    13    14 ar  
    26    14    15 ar  
    27    15    29 1   
    28    16    17 1   
    29    16    30 1   
    30    16    31 1   
    31    17    18 1   
    32    17    32 1   
    33    17    33 1   
    34    18    19 1   
    35    18    20 1   
@<TRIPOS>SUBSTRUCTURE
     1 0RA         1 TEMP              0 ****  ****    0 ROOT
