@<TRIPOS>MOLECULE
0RA
   33    35     1     0     0
SMALL
abcg2


@<TRIPOS>ATOM
      1 C1          -1.0420     3.0860     0.2620 ca         1 0RA      -0.119000
      2 C2          -2.2110     2.3490     0.3960 ca         1 0RA      -0.110000
      3 C3          -2.1630     0.9600     0.4980 ca         1 0RA      -0.043300
      4 C4          -0.9190     0.3370     0.4570 ca         1 0RA      -0.104000
      5 C5           0.2670     1.0610     0.3280 cp         1 0RA      -0.044000
      6 C6           0.1900     2.4510     0.2310 ca         1 0RA      -0.126000
      7 C7           1.5720     0.3740     0.2940 cp         1 0RA      -0.093000
      8 C8           2.6030     0.8190    -0.5260 ca         1 0RA      -0.027000
      9 C9           3.8090     0.1260    -0.5090 ca         1 0RA      -0.140800
     10 C10          5.0690     0.2310    -1.1730 cc         1 0RA      -0.232200
     11 C11          5.8380    -0.7940    -0.7020 cd         1 0RA      -0.169100
     12 N1           5.1340    -1.5300     0.2110 na         1 0RA      -0.330400
     13 C12          3.8920    -0.9940     0.3510 ca         1 0RA       0.362500
     14 N2           2.9330    -1.4380     1.1460 nb         1 0RA      -0.690000
     15 C13          1.8020    -0.7530     1.1060 ca         1 0RA       0.371900
     16 C14         -3.4190     0.1400     0.5970 c3         1 0RA      -0.023100
     17 C15         -3.9210    -0.2970    -0.7750 c3         1 0RA      -0.205400
     18 C16         -5.1760    -1.1910    -0.7640 c          1 0RA       0.718000
     19 O1          -5.6270    -1.5480     0.3410 o          1 0RA      -0.739000
     20 O2          -5.6350    -1.4930    -1.8860 o          1 0RA      -0.739000
     21 H1          -1.0910     4.1660     0.1960 ha         1 0RA       0.097000
     22 H2          -3.1670     2.8580     0.4280 ha         1 0RA       0.114000
     23 H3          -0.8770    -0.7460     0.5130 ha         1 0RA       0.117000
     24 H4           1.0940     3.0420     0.1520 ha         1 0RA       0.097000
     25 H5           2.4640     1.6740    -1.1760 ha         1 0RA       0.122000
     26 H6           5.3700     0.9690    -1.8990 ha         1 0RA       0.202000
     27 H7           6.8530    -1.0600    -0.9490 h4         1 0RA       0.205000
     28 H8           5.4800    -2.3390     0.6990 hn         1 0RA       0.354000
     29 H9           1.0160    -1.0990     1.7690 h4         1 0RA       0.028100
     30 H10         -3.2310    -0.7410     1.2140 hc         1 0RA       0.051700
     31 H11         -4.1940     0.7160     1.1070 hc         1 0RA       0.051700
     32 H12         -4.1270     0.5830    -1.3930 hc         1 0RA       0.021700
     33 H13         -3.1240    -0.8350    -1.3020 hc         1 0RA       0.021700
@<TRIPOS>BOND
     1     1     2 ar  
     2     1     6 ar  
     3     1    21 1   
     4     2     3 ar  
     5     2    22 1   
     6     3     4 ar  
     7     3    16 1   
     8     4     5 ar  
     9     4    23 1   
    10     5     6 ar  
    11     5     7 1   
    12     6    24 1   
    13     7     8 ar  
    14     7    15 ar  
    15     8     9 ar  
    16     8    25 1   
    17     9    10 1   
    18     9    13 ar  
    19    10    11 2   
    20    10    26 1   
    21    11    12 1   
    22    11    27 1   
    23    12    13 1   
    24    12    28 1   
    25    13    14 ar  
    26    14    15 ar  
    27    15    29 1   
    28    16    17 1   
    29    16    30 1   
    30    16    31 1   
    31    17    18 1   
    32    17    32 1   
    33    17    33 1   
    34    18    19 1   
    35    18    20 1   
@<TRIPOS>SUBSTRUCTURE
     1 0RA         1 TEMP              0 ****  ****    0 ROOT
