@<TRIPOS>MOLECULE
0RB
   30    32     1     0     0
SMALL
No Charge or Current Charge


@<TRIPOS>ATOM
      1 C1           3.8370    -1.8860    -0.3840 cc         1 0RB       0.923100
      2 C2           4.1680    -0.0050     0.9900 c          1 0RB       0.635000
      3 C3           2.7430     0.4060     0.7830 ca         1 0RB       0.206500
      4 C4           1.9980    -0.4700    -0.0420 ca         1 0RB       0.556900
      5 C5           0.1470     0.9030     0.2450 ca         1 0RB       0.284500
      6 C6           0.9060     1.7730     1.0700 ca         1 0RB       0.312900
      7 O2          -1.8800     2.2230     0.4430 o          1 0RB      -0.611100
      8 C7          -1.3160     1.2370    -0.0230 c          1 0RB       0.513600
      9 N5           2.2160     1.5390     1.3530 nb         1 0RB      -0.553000
     10 O1           4.9620     0.6220     1.6790 o          1 0RB      -0.494100
     11 N2           4.6070    -1.1700     0.3550 nd         1 0RB      -0.791100
     12 N4           0.7010    -0.2280    -0.3140 nb         1 0RB      -0.705000
     13 N3           2.5560    -1.5910    -0.5880 na         1 0RB      -0.902100
     14 N1           4.2810    -2.9570    -0.9480 nv         1 0RB      -1.053200
     15 N6          -1.9900     0.3440    -0.8330 ns         1 0RB      -0.483900
     16 C8          -3.3840     0.4730    -1.2560 c3         1 0RB       0.179300
     17 C9          -4.3500     0.1430    -0.1530 cc         1 0RB      -0.224300
     18 N9          -4.4910     0.8390     1.0250 na         1 0RB       0.008800
     19 N8          -5.4590     0.2960     1.8160 nc         1 0RB      -0.188800
     20 N7          -5.9370    -0.7290     1.1610 nd         1 0RB      -0.362000
     21 C10         -5.2810    -0.8520    -0.0490 cd         1 0RB       0.199900
     22 H1           0.4640     2.6660     1.5100 h4         1 0RB       0.065100
     23 H2           1.9780    -2.2230    -1.1110 hn         1 0RB       0.513000
     24 H3           5.2850    -3.0180    -0.8570 hn         1 0RB       0.516500
     25 H4           3.9480    -3.1020    -1.8890 hn         1 0RB       0.516500
     26 H5          -1.4440    -0.4450    -1.1660 hn         1 0RB       0.347500
     27 H6          -3.5600     1.5000    -1.6050 h1         1 0RB       0.073200
     28 H7          -3.5570    -0.2000    -2.1070 h1         1 0RB       0.073200
     29 H8          -3.9560     1.6540     1.3200 hn         1 0RB       0.398000
     30 H9          -5.5170    -1.6360    -0.7580 h4         1 0RB       0.046100
@<TRIPOS>BOND
     1     1    11 2   
     2     1    13 1   
     3     1    14 1   
     4     2     3 1   
     5     2    10 2   
     6     2    11 1   
     7     3     4 ar  
     8     3     9 ar  
     9     4    12 ar  
    10     4    13 1   
    11     5     6 ar  
    12     5     8 1   
    13     5    12 ar  
    14     6     9 ar  
    15     6    22 1   
    16     7     8 2   
    17     8    15 1   
    18    13    23 1   
    19    14    24 1   
    20    14    25 1   
    21    15    16 1   
    22    15    26 1   
    23    16    17 1   
    24    16    27 1   
    25    16    28 1   
    26    17    18 1   
    27    17    21 2   
    28    18    19 1   
    29    18    29 1   
    30    19    20 2   
    31    20    21 1   
    32    21    30 1   
@<TRIPOS>SUBSTRUCTURE
     1 0RB         1 TEMP              0 ****  ****    0 ROOT
