@<TRIPOS>MOLECULE
0RB
   30    32     1     0     0
SMALL
abcg2


@<TRIPOS>ATOM
      1 C1           3.8130    -1.8040    -0.3850 cc         1 0RB       0.923100
      2 C2           4.1350     0.0760     0.9470 c          1 0RB       0.635000
      3 C3           2.7080     0.4280     0.7140 ca         1 0RB       0.206500
      4 C4           1.9250    -0.4170    -0.0780 ca         1 0RB       0.556900
      5 C5           0.1430     0.9180     0.2260 ca         1 0RB       0.284500
      6 C6           0.9130     1.7750     1.0130 ca         1 0RB       0.312900
      7 O2          -1.8390     2.1890     0.5110 o          1 0RB      -0.611100
      8 C7          -1.3070     1.2200    -0.0150 c          1 0RB       0.513600
      9 N5           2.1880     1.5190     1.2470 nb         1 0RB      -0.553000
     10 O1           4.8430     0.7820     1.6440 o          1 0RB      -0.494100
     11 N2           4.5960    -1.0510     0.3500 nd         1 0RB      -0.791100
     12 N4           0.6510    -0.1730    -0.3180 nb         1 0RB      -0.705000
     13 N3           2.5000    -1.5270    -0.6210 na         1 0RB      -0.902100
     14 N1           4.2980    -2.9060    -0.9430 nv         1 0RB      -1.053200
     15 N6          -1.9350     0.3650    -0.8220 ns         1 0RB      -0.483900
     16 C8          -3.3220     0.5210    -1.2010 c3         1 0RB       0.179300
     17 C9          -4.2920     0.1210    -0.1400 cc         1 0RB      -0.224300
     18 N9          -4.3670     0.6600     1.0900 na         1 0RB       0.008800
     19 N8          -5.3370     0.1230     1.8030 nc         1 0RB      -0.188800
     20 N7          -5.9190    -0.7590     1.0670 nd         1 0RB      -0.362000
     21 C10         -5.3100    -0.7970    -0.1380 cd         1 0RB       0.199900
     22 H1           0.4890     2.6690     1.4480 h4         1 0RB       0.065100
     23 H2           1.9220    -2.1570    -1.1610 hn         1 0RB       0.513000
     24 H3           5.2690    -3.1310    -0.8100 hn         1 0RB       0.516500
     25 H4           3.7550    -3.4930    -1.5530 hn         1 0RB       0.516500
     26 H5          -1.4230    -0.4270    -1.1790 hn         1 0RB       0.347500
     27 H6          -3.5080     1.5510    -1.5130 h1         1 0RB       0.073200
     28 H7          -3.4910    -0.1100    -2.0700 h1         1 0RB       0.073200
     29 H8          -3.7860     1.3890     1.4840 hn         1 0RB       0.398000
     30 H9          -5.6330    -1.4500    -0.9320 h4         1 0RB       0.046100
@<TRIPOS>BOND
     1     1    11 2   
     2     1    13 1   
     3     1    14 1   
     4     2     3 1   
     5     2    10 2   
     6     2    11 1   
     7     3     4 ar  
     8     3     9 ar  
     9     4    12 ar  
    10     4    13 1   
    11     5     6 ar  
    12     5     8 1   
    13     5    12 ar  
    14     6     9 ar  
    15     6    22 1   
    16     7     8 2   
    17     8    15 1   
    18    13    23 1   
    19    14    24 1   
    20    14    25 1   
    21    15    16 1   
    22    15    26 1   
    23    16    17 1   
    24    16    27 1   
    25    16    28 1   
    26    17    18 1   
    27    17    21 2   
    28    18    19 1   
    29    18    29 1   
    30    19    20 2   
    31    20    21 1   
    32    21    30 1   
@<TRIPOS>SUBSTRUCTURE
     1 0RB         1 TEMP              0 ****  ****    0 ROOT
