@<TRIPOS>MOLECULE
0RC
   45    46     1     0     0
SMALL
bcc


@<TRIPOS>ATOM
      1 O3B         -3.7780    -2.0210    -1.1960 o          1 0RC      -0.852500
      2 PB          -4.2820    -0.8330    -0.4210 p5         1 0RC       1.322600
      3 O2B         -5.2340     0.1350    -1.0690 o          1 0RC      -0.852500
      4 C1B         -4.9590    -1.4010     1.1780 c3         1 0RC      -0.273600
      5 C14         -6.1660    -2.3080     0.9820 c3         1 0RC       0.167800
      6 N15         -6.6890    -2.7660     2.2640 n8         1 0RC      -0.892800
      7 O3A         -2.9720     0.0100     0.1700 os         1 0RC      -0.707800
      8 PA          -2.2490     1.2480    -0.6130 p5         1 0RC       1.458800
      9 O1A         -2.1340     0.9770    -2.0820 o          1 0RC      -0.854500
     10 O2A         -2.7960     2.5570    -0.1330 o          1 0RC      -0.854500
     11 O5          -0.7810     0.9920     0.1020 os         1 0RC      -0.545200
     12 C5           0.3240     1.6730    -0.4500 c3         1 0RC       0.209400
     13 C4           1.4360     1.7480     0.5660 c5         1 0RC       0.144100
     14 C3           2.6570     2.5020     0.0400 c5         1 0RC       0.066100
     15 O3           2.5380     3.8700     0.3400 oh         1 0RC      -0.589800
     16 C2           3.8240     1.8290     0.7850 c5         1 0RC       0.076100
     17 O2           4.1000     2.5130     1.9820 oh         1 0RC      -0.616800
     18 O4           1.8920     0.4450     0.8830 os         1 0RC      -0.351600
     19 C1           3.2650     0.4450     1.1580 c5         1 0RC       0.300500
     20 N1           3.8860    -0.7030     0.5170 n          1 0RC      -0.374000
     21 C6           4.3700    -1.7040     1.2920 cc         1 0RC       0.095600
     22 C7           4.9130    -2.8160     0.7620 cd         1 0RC      -0.461600
     23 C8           4.9310    -2.8920    -0.6650 cd         1 0RC       0.782500
     24 N4           5.4420    -3.9680    -1.2600 nv         1 0RC      -0.938800
     25 N3           4.4520    -1.9250    -1.4240 nc         1 0RC      -0.773100
     26 C9           3.9230    -0.8100    -0.8830 c          1 0RC       0.861900
     27 O6           3.4820     0.1060    -1.5620 o          1 0RC      -0.607500
     28 H1B1        -4.1910    -1.9370     1.7420 hc         1 0RC       0.047700
     29 H1B2        -5.2470    -0.5310     1.7770 hc         1 0RC       0.047700
     30 H141        -6.9130    -1.7810     0.3730 h1         1 0RC       0.028200
     31 H142        -5.8630    -3.1850     0.4050 h1         1 0RC       0.028200
     32 H151        -7.0350    -1.9680     2.7820 hn         1 0RC       0.301800
     33 H152        -7.4980    -3.3530     2.1020 hn         1 0RC       0.301800
     34 H5'1         0.6880     1.1640    -1.3500 h1         1 0RC       0.029200
     35 H5'2         0.0710     2.7030    -0.7330 h1         1 0RC       0.029200
     36 H4           1.0710     2.2500     1.4730 h1         1 0RC       0.069700
     37 H3           2.7680     2.3420    -1.0330 h1         1 0RC       0.088700
     38 HO3          3.0250     4.3770    -0.3170 ho         1 0RC       0.398000
     39 H2           4.7240     1.7560     0.1650 h1         1 0RC       0.054700
     40 HO2          3.8130     3.4280     1.8520 ho         1 0RC       0.424000
     41 H1           3.4390     0.2990     2.2280 h2         1 0RC       0.055700
     42 H6           4.3000    -1.5610     2.3620 h4         1 0RC       0.147000
     43 H5           5.3000    -3.6060     1.3870 ha         1 0RC       0.138000
     44 HN41         5.8190    -4.7330    -0.7300 hn         1 0RC       0.436300
     45 HN42         5.4490    -4.0370    -2.2630 hn         1 0RC       0.436300
@<TRIPOS>BOND
     1     1     2 1   
     2     2     3 1   
     3     2     4 1   
     4     2     7 1   
     5     4     5 1   
     6     4    28 1   
     7     4    29 1   
     8     5     6 1   
     9     5    30 1   
    10     5    31 1   
    11     6    32 1   
    12     6    33 1   
    13     7     8 1   
    14     8     9 1   
    15     8    10 1   
    16     8    11 1   
    17    11    12 1   
    18    12    13 1   
    19    12    34 1   
    20    12    35 1   
    21    13    14 1   
    22    13    18 1   
    23    13    36 1   
    24    14    15 1   
    25    14    16 1   
    26    14    37 1   
    27    15    38 1   
    28    16    17 1   
    29    16    19 1   
    30    16    39 1   
    31    17    40 1   
    32    18    19 1   
    33    19    20 1   
    34    19    41 1   
    35    20    21 1   
    36    20    26 1   
    37    21    22 2   
    38    21    42 1   
    39    22    23 1   
    40    22    43 1   
    41    23    24 1   
    42    23    25 2   
    43    24    44 1   
    44    24    45 1   
    45    25    26 1   
    46    26    27 2   
@<TRIPOS>SUBSTRUCTURE
     1 0RC         1 TEMP              0 ****  ****    0 ROOT
