@<TRIPOS>MOLECULE
0RC
   45    46     1     0     0
SMALL
No Charge or Current Charge


@<TRIPOS>ATOM
      1 O3B         -2.2410    -1.2260    -0.3070 o          1 0RC      -0.852500
      2 PB          -2.8860    -0.1810     0.5450 p5         1 0RC       1.480400
      3 O2B         -4.3710    -0.1030     0.3900 o          1 0RC      -0.852500
      4 C1B         -2.5280    -0.5870     2.2940 c3         1 0RC      -0.431400
      5 C14         -3.1020    -1.9420     2.6810 c3         1 0RC       0.167800
      6 N15         -2.7780    -2.2090     4.0850 n8         1 0RC      -1.003200
      7 O3A         -2.1390     1.2090     0.5450 os         1 0RC      -0.707800
      8 PA          -2.4710     2.0550    -0.7390 p5         1 0RC       1.458800
      9 O1A         -2.3340     1.3380    -2.0390 o          1 0RC      -0.854500
     10 O2A         -3.7830     2.7580    -0.6170 o          1 0RC      -0.854500
     11 O5          -1.2960     3.1510    -0.5790 os         1 0RC      -0.568400
     12 C5           0.0700     2.8960    -0.9630 c3         1 0RC       0.232600
     13 C4           0.7610     1.8960     0.0100 c5         1 0RC       0.167300
     14 C3           2.3010     2.0980     0.1860 c5         1 0RC       0.089300
     15 O3           2.6590     3.2240     1.0200 oh         1 0RC      -0.712000
     16 C2           2.6930     0.7550     0.8810 c5         1 0RC       0.099300
     17 O2           2.5830     0.9470     2.2970 oh         1 0RC      -0.739000
     18 O4           0.7110     0.5550    -0.5120 os         1 0RC      -0.398000
     19 C1           1.6080    -0.2300     0.2940 c5         1 0RC       0.323700
     20 N1           2.3100    -1.3040    -0.4600 n          1 0RC      -0.307000
     21 C6           2.4620    -2.5470     0.1480 cc         1 0RC       0.045600
     22 C7           3.0590    -3.5660    -0.5550 cd         1 0RC      -0.511600
     23 C8           3.4890    -3.2770    -1.8620 cd         1 0RC       0.782500
     24 N4           4.0580    -4.2140    -2.5910 nv         1 0RC      -1.049200
     25 N3           3.3660    -2.1310    -2.4370 nc         1 0RC      -0.773100
     26 C9           2.7820    -1.0830    -1.7740 c          1 0RC       0.719400
     27 O6           2.7250     0.0000    -2.3320 o          1 0RC      -0.532000
     28 H1B1        -1.4390    -0.5750     2.4140 hc         1 0RC       0.047700
     29 H1B2        -2.9560     0.2120     2.9100 hc         1 0RC       0.047700
     30 H141        -4.1950    -1.9410     2.5610 h1         1 0RC       0.028200
     31 H142        -2.6740    -2.7390     2.0560 h1         1 0RC       0.028200
     32 H151        -3.2010    -1.4730     4.6610 hn         1 0RC       0.357000
     33 H152        -3.2590    -3.0660     4.3800 hn         1 0RC       0.357000
     34 H5'1         0.1290     2.5120    -1.9900 h1         1 0RC       0.029200
     35 H5'2         0.6260     3.8420    -0.9410 h1         1 0RC       0.029200
     36 H4           0.2590     1.9300     0.9870 h1         1 0RC       0.069700
     37 H3           2.7880     2.1690    -0.7990 h1         1 0RC       0.088700
     38 HO3          2.7660     4.0130     0.4350 ho         1 0RC       0.497000
     39 H2           3.7160     0.4550     0.6110 h1         1 0RC       0.054700
     40 HO2          2.6360     1.9380     2.3660 ho         1 0RC       0.523000
     41 H1           1.0460    -0.7090     1.1050 h2         1 0RC       0.055700
     42 H6           2.0760    -2.6020     1.1640 h4         1 0RC       0.197000
     43 H5           3.1960    -4.5490    -0.1220 ha         1 0RC       0.188000
     44 HN41         3.8110    -5.1640    -2.3460 hn         1 0RC       0.491500
     45 HN42         4.0850    -4.0040    -3.5790 hn         1 0RC       0.491500
@<TRIPOS>BOND
     1     1     2 1   
     2     2     3 1   
     3     2     4 1   
     4     2     7 1   
     5     4     5 1   
     6     4    28 1   
     7     4    29 1   
     8     5     6 1   
     9     5    30 1   
    10     5    31 1   
    11     6    32 1   
    12     6    33 1   
    13     7     8 1   
    14     8     9 1   
    15     8    10 1   
    16     8    11 1   
    17    11    12 1   
    18    12    13 1   
    19    12    34 1   
    20    12    35 1   
    21    13    14 1   
    22    13    18 1   
    23    13    36 1   
    24    14    15 1   
    25    14    16 1   
    26    14    37 1   
    27    15    38 1   
    28    16    17 1   
    29    16    19 1   
    30    16    39 1   
    31    17    40 1   
    32    18    19 1   
    33    19    20 1   
    34    19    41 1   
    35    20    21 1   
    36    20    26 1   
    37    21    22 2   
    38    21    42 1   
    39    22    23 1   
    40    22    43 1   
    41    23    24 1   
    42    23    25 2   
    43    24    44 1   
    44    24    45 1   
    45    25    26 1   
    46    26    27 2   
@<TRIPOS>SUBSTRUCTURE
     1 0RC         1 TEMP              0 ****  ****    0 ROOT
