@<TRIPOS>MOLECULE
0RD
   54    57     1     0     0
SMALL
abcg2


@<TRIPOS>ATOM
      1 CL1         -7.7480    -1.7620     0.4180 cl         1 0RD      -0.203000
      2 C23         -6.0260    -1.6050     0.4980 ca         1 0RD       0.048000
      3 C11         -5.3600    -0.8900    -0.4810 ca         1 0RD       0.031000
      4 C30         -5.3280    -2.1920     1.5410 ca         1 0RD      -0.013000
      5 C22         -3.9500    -2.0700     1.6140 ca         1 0RD      -0.215000
      6 C18         -3.2540    -1.3590     0.6390 ca         1 0RD       0.246100
      7 O32         -1.9390    -1.1750     0.6250 os         1 0RD      -0.332100
      8 C34         -1.1440    -1.6870     1.6820 c3         1 0RD       0.148900
      9 C3          -3.9800    -0.7710    -0.4070 ca         1 0RD      -0.340500
     10 S1          -3.1350     0.1320    -1.6830 sy         1 0RD       1.197600
     11 O12         -2.0750    -0.6780    -2.2470 o          1 0RD      -0.528000
     12 O13         -4.1670     0.6540    -2.5620 o          1 0RD      -0.528000
     13 N2          -2.4610     1.4480    -0.9520 nh         1 0RD      -0.759300
     14 C9          -3.3880     2.4170    -0.3250 c5         1 0RD       0.207800
     15 C17         -2.4770     3.3470     0.4840 c5         1 0RD      -0.033100
     16 C5          -1.1540     2.6460     0.4810 ca         1 0RD      -0.120300
     17 C4          -1.1800     1.5500    -0.3750 ca         1 0RD       0.293000
     18 C10         -0.0030     2.9990     1.1680 ca         1 0RD      -0.055300
     19 C33         -0.0010     4.1730     2.0980 c3         1 0RD      -0.044800
     20 C16          1.1350     2.2220     0.9670 ca         1 0RD      -0.110000
     21 C8           1.1140     1.1360     0.0960 ca         1 0RD      -0.125600
     22 C7          -0.0470     0.7850    -0.5890 ca         1 0RD      -0.076000
     23 C6           2.3080     0.2590    -0.0970 c          1 0RD       0.606700
     24 O20          2.1880    -0.9350    -0.3140 o          1 0RD      -0.589100
     25 N14          3.5020     0.9000    -0.0190 ns         1 0RD      -0.127000
     26 C24          4.7960     0.3750    -0.0980 ca         1 0RD      -0.073000
     27 C28          5.8430     1.3000    -0.1410 ca         1 0RD      -0.171500
     28 C25          7.1580     0.8760    -0.2020 ca         1 0RD      -0.068000
     29 C29          5.1020    -0.9860    -0.1180 ca         1 0RD      -0.171500
     30 C26          6.4290    -1.3890    -0.1800 ca         1 0RD      -0.068000
     31 C19          7.4790    -0.4790    -0.2240 ca         1 0RD      -0.143600
     32 C15          8.9250    -0.9430    -0.2890 c          1 0RD       0.713600
     33 O21          9.1170    -2.1740    -0.3300 o          1 0RD      -0.721000
     34 O27          9.7980    -0.0530    -0.2960 o          1 0RD      -0.721000
     35 H1          -5.9070    -0.4300    -1.2910 ha         1 0RD       0.157000
     36 H2          -5.8520    -2.7460     2.3070 ha         1 0RD       0.127000
     37 H3          -3.4310    -2.5340     2.4400 ha         1 0RD       0.127000
     38 H4          -1.4210    -1.2440     2.6410 h1         1 0RD       0.058033
     39 H5          -1.2190    -2.7740     1.7490 h1         1 0RD       0.058033
     40 H6          -0.1200    -1.4150     1.4430 h1         1 0RD       0.058033
     41 H7          -3.9540     2.9460    -1.0870 h1         1 0RD       0.058200
     42 H8          -4.0920     1.8980     0.3300 h1         1 0RD       0.058200
     43 H9          -2.3900     4.3300     0.0140 hc         1 0RD       0.058700
     44 H10         -2.8660     3.5090     1.4900 hc         1 0RD       0.058700
     45 H11         -0.7550     4.0620     2.8790 hc         1 0RD       0.042033
     46 H12          0.9660     4.2950     2.5830 hc         1 0RD       0.042033
     47 H13         -0.2280     5.0990     1.5650 hc         1 0RD       0.042033
     48 H14          2.0320     2.4630     1.5260 ha         1 0RD       0.123000
     49 H15         -0.0420    -0.0630    -1.2540 ha         1 0RD       0.176000
     50 H16          3.4630     1.9060     0.0380 hn         1 0RD       0.141000
     51 H17          5.6240     2.3610    -0.1240 ha         1 0RD       0.101500
     52 H18          7.9480     1.6130    -0.2320 ha         1 0RD       0.129000
     53 H19          4.3260    -1.7320    -0.0850 ha         1 0RD       0.101500
     54 H20          6.6460    -2.4490    -0.1940 ha         1 0RD       0.129000
@<TRIPOS>BOND
     1     1     2 1   
     2     2     3 ar  
     3     2     4 ar  
     4     3     9 ar  
     5     3    35 1   
     6     4     5 ar  
     7     4    36 1   
     8     5     6 ar  
     9     5    37 1   
    10     6     7 1   
    11     6     9 ar  
    12     7     8 1   
    13     8    38 1   
    14     8    39 1   
    15     8    40 1   
    16     9    10 1   
    17    10    11 2   
    18    10    12 2   
    19    10    13 1   
    20    13    14 1   
    21    13    17 1   
    22    14    15 1   
    23    14    41 1   
    24    14    42 1   
    25    15    16 1   
    26    15    43 1   
    27    15    44 1   
    28    16    17 ar  
    29    16    18 ar  
    30    17    22 ar  
    31    18    19 1   
    32    18    20 ar  
    33    19    45 1   
    34    19    46 1   
    35    19    47 1   
    36    20    21 ar  
    37    20    48 1   
    38    21    22 ar  
    39    21    23 1   
    40    22    49 1   
    41    23    24 2   
    42    23    25 1   
    43    25    26 1   
    44    25    50 1   
    45    26    27 ar  
    46    26    29 ar  
    47    27    28 ar  
    48    27    51 1   
    49    28    31 ar  
    50    28    52 1   
    51    29    30 ar  
    52    29    53 1   
    53    30    31 ar  
    54    30    54 1   
    55    31    32 1   
    56    32    33 1   
    57    32    34 1   
@<TRIPOS>SUBSTRUCTURE
     1 0RD         1 TEMP              0 ****  ****    0 ROOT
