@<TRIPOS>MOLECULE
0RD
   54    57     1     0     0
SMALL
No Charge or Current Charge


@<TRIPOS>ATOM
      1 Cl1         -5.0300     0.0180     3.6180 cl         1 0RD      -0.203000
      2 C23         -3.9950    -0.6380     2.3550 ca         1 0RD       0.048000
      3 C11         -4.1580    -0.2190     1.0270 ca         1 0RD       0.031000
      4 C30         -3.0070    -1.5770     2.6760 ca         1 0RD      -0.013000
      5 C22         -2.1820    -2.0980     1.6660 ca         1 0RD      -0.215000
      6 C18         -2.3350    -1.6830     0.3220 ca         1 0RD       0.246100
      7 O32         -1.5310    -2.1980    -0.6720 os         1 0RD      -0.332100
      8 C34         -0.4370    -3.0960    -0.4080 c3         1 0RD       0.148900
      9 C3          -3.3290    -0.7290     0.0030 ca         1 0RD      -0.340500
     10 S1          -3.5910    -0.0870    -1.6630 sy         1 0RD       1.197600
     11 O12         -2.7470    -0.7630    -2.6530 o          1 0RD      -0.528000
     12 O13         -5.0350     0.0570    -1.8760 o          1 0RD      -0.528000
     13 N2          -2.9720     1.4900    -1.4580 nh         1 0RD      -0.759300
     14 C9          -3.9090     2.6110    -1.1710 c5         1 0RD       0.207800
     15 C17         -3.0720     3.5160    -0.1780 c5         1 0RD      -0.033100
     16 C5          -1.7180     2.8220    -0.1520 ca         1 0RD      -0.120300
     17 C4          -1.7130     1.6650    -0.9010 ca         1 0RD       0.293000
     18 C10         -0.5670     3.2360     0.5420 ca         1 0RD      -0.055300
     19 C33         -0.5810     4.5060     1.3830 c3         1 0RD      -0.044800
     20 C16          0.6010     2.4500     0.4450 ca         1 0RD      -0.110000
     21 C8           0.6270     1.2660    -0.3440 ca         1 0RD      -0.125600
     22 C7          -0.5530     0.8850    -1.0300 ca         1 0RD      -0.076000
     23 C6           1.8710     0.4040    -0.4760 c          1 0RD       0.606700
     24 O20          1.8690    -0.6020    -1.1790 o          1 0RD      -0.589100
     25 N14          2.9840     0.8370     0.2400 ns         1 0RD      -0.127000
     26 C24          4.2980     0.3120     0.3950 ca         1 0RD      -0.073000
     27 C28          5.2200     1.0790     1.1290 ca         1 0RD      -0.171500
     28 C25          6.5370     0.6280     1.3300 ca         1 0RD      -0.068000
     29 C29          4.7170    -0.9270    -0.1330 ca         1 0RD      -0.171500
     30 C26          6.0330    -1.3810     0.0670 ca         1 0RD      -0.068000
     31 C19          6.9630    -0.6100     0.8000 ca         1 0RD      -0.143600
     32 C15          8.3860    -1.1020     1.0150 c          1 0RD       0.713600
     33 O21          8.7120    -2.1800     0.5380 o          1 0RD      -0.721000
     34 O27          9.1560    -0.4020     1.6570 o          1 0RD      -0.721000
     35 H1          -4.9320     0.5120     0.8030 ha         1 0RD       0.157000
     36 H2          -2.8810    -1.9010     3.7070 ha         1 0RD       0.127000
     37 H3          -1.4310    -2.8280     1.9500 ha         1 0RD       0.127000
     38 H4           0.2930    -2.6340     0.2690 h1         1 0RD       0.058033
     39 H5          -0.7960    -4.0300     0.0410 h1         1 0RD       0.058033
     40 H6           0.0800    -3.3470    -1.3420 h1         1 0RD       0.058033
     41 H7          -4.1560     3.1610    -2.0890 h1         1 0RD       0.058200
     42 H8          -4.8470     2.2890    -0.7010 h1         1 0RD       0.058200
     43 H9          -3.0060     4.5480    -0.5370 hc         1 0RD       0.058700
     44 H10         -3.5320     3.5410     0.8160 hc         1 0RD       0.058700
     45 H11         -1.3460     4.4480     2.1660 hc         1 0RD       0.042033
     46 H12          0.3820     4.6800     1.8750 hc         1 0RD       0.042033
     47 H13         -0.8000     5.3830     0.7630 hc         1 0RD       0.042033
     48 H14          1.4840     2.7770     0.9870 ha         1 0RD       0.123000
     49 H15         -0.5580     0.0020    -1.6590 ha         1 0RD       0.176000
     50 H16          2.8310     1.6920     0.7570 hn         1 0RD       0.141000
     51 H17          4.9190     2.0360     1.5480 ha         1 0RD       0.101500
     52 H18          7.2250     1.2480     1.9010 ha         1 0RD       0.129000
     53 H19          4.0400    -1.5600    -0.6970 ha         1 0RD       0.101500
     54 H20          6.3260    -2.3410    -0.3530 ha         1 0RD       0.129000
@<TRIPOS>BOND
     1     1     2 1   
     2     2     3 ar  
     3     2     4 ar  
     4     3     9 ar  
     5     3    35 1   
     6     4     5 ar  
     7     4    36 1   
     8     5     6 ar  
     9     5    37 1   
    10     6     7 1   
    11     6     9 ar  
    12     7     8 1   
    13     8    38 1   
    14     8    39 1   
    15     8    40 1   
    16     9    10 1   
    17    10    11 2   
    18    10    12 2   
    19    10    13 1   
    20    13    14 1   
    21    13    17 1   
    22    14    15 1   
    23    14    41 1   
    24    14    42 1   
    25    15    16 1   
    26    15    43 1   
    27    15    44 1   
    28    16    17 ar  
    29    16    18 ar  
    30    17    22 ar  
    31    18    19 1   
    32    18    20 ar  
    33    19    45 1   
    34    19    46 1   
    35    19    47 1   
    36    20    21 ar  
    37    20    48 1   
    38    21    22 ar  
    39    21    23 1   
    40    22    49 1   
    41    23    24 2   
    42    23    25 1   
    43    25    26 1   
    44    25    50 1   
    45    26    27 ar  
    46    26    29 ar  
    47    27    28 ar  
    48    27    51 1   
    49    28    31 ar  
    50    28    52 1   
    51    29    30 ar  
    52    29    53 1   
    53    30    31 ar  
    54    30    54 1   
    55    31    32 1   
    56    32    33 1   
    57    32    34 1   
@<TRIPOS>SUBSTRUCTURE
     1 0RD         1 TEMP              0 ****  ****    0 ROOT
