@<TRIPOS>MOLECULE
0RE
   22    21     1     0     0
SMALL
No Charge or Current Charge


@<TRIPOS>ATOM
      1 O01         -3.4940     0.0090     0.0470 oh         1 0RE      -0.644000
      2 C02         -2.2870     0.7060    -0.3070 c3         1 0RE       0.130600
      3 C03         -1.0440    -0.1200     0.1230 c3         1 0RE       0.165300
      4 O04         -1.1450    -1.4300    -0.4520 oh         1 0RE      -0.639000
      5 C05          0.2860     0.5440    -0.3120 c3         1 0RE      -0.110400
      6 C06          1.5540    -0.1770     0.2080 c3         1 0RE      -0.072400
      7 C07          2.8620     0.5330    -0.2030 c3         1 0RE      -0.075400
      8 C08          4.1250    -0.1830     0.3140 c3         1 0RE      -0.088100
      9 H1          -4.2470     0.5930    -0.1970 ho         1 0RE       0.440000
     10 H2          -2.2530     0.8800    -1.3910 h1         1 0RE       0.017200
     11 H3          -2.2560     1.6840     0.1900 h1         1 0RE       0.017200
     12 H4          -1.0530    -0.1860     1.2210 h1         1 0RE       0.083700
     13 H5          -2.1090    -1.6280    -0.4430 ho         1 0RE       0.434000
     14 H6           0.3230     0.5990    -1.4070 hc         1 0RE       0.039700
     15 H7           0.2970     1.5780     0.0550 hc         1 0RE       0.039700
     16 H8           1.5080    -0.2420     1.3030 hc         1 0RE       0.046700
     17 H9           1.5710    -1.2060    -0.1720 hc         1 0RE       0.046700
     18 H10          2.9120     0.5980    -1.2970 hc         1 0RE       0.034700
     19 H11          2.8550     1.5610     0.1790 hc         1 0RE       0.034700
     20 H12          4.1220    -0.2340     1.4090 hc         1 0RE       0.032700
     21 H13          4.1810    -1.2050    -0.0800 hc         1 0RE       0.032700
     22 H14          5.0260     0.3560    -0.0020 hc         1 0RE       0.032700
@<TRIPOS>BOND
     1     1     2 1   
     2     1     9 1   
     3     2     3 1   
     4     2    10 1   
     5     2    11 1   
     6     3     4 1   
     7     3     5 1   
     8     3    12 1   
     9     4    13 1   
    10     5     6 1   
    11     5    14 1   
    12     5    15 1   
    13     6     7 1   
    14     6    16 1   
    15     6    17 1   
    16     7     8 1   
    17     7    18 1   
    18     7    19 1   
    19     8    20 1   
    20     8    21 1   
    21     8    22 1   
@<TRIPOS>SUBSTRUCTURE
     1 0RE         1 TEMP              0 ****  ****    0 ROOT
