@<TRIPOS>MOLECULE
0RE
   22    21     1     0     0
SMALL
bcc


@<TRIPOS>ATOM
      1 O01         -3.4400     0.1290     0.3310 oh         1 0RE      -0.581800
      2 C02         -2.2720     0.6910    -0.2200 c3         1 0RE       0.107400
      3 C03         -1.0680    -0.1350     0.1990 c3         1 0RE       0.142100
      4 O04         -1.1810    -1.4800    -0.2180 oh         1 0RE      -0.576800
      5 C05          0.2250     0.5130    -0.2860 c3         1 0RE      -0.110400
      6 C06          1.4850    -0.1750     0.2230 c3         1 0RE      -0.072400
      7 C07          2.7620     0.4970    -0.2660 c3         1 0RE      -0.075400
      8 C08          4.0230    -0.1710     0.2630 c3         1 0RE      -0.088100
      9 H1          -4.1830     0.6850     0.0820 ho         1 0RE       0.401000
     10 H2          -2.3190     0.7280    -1.3190 h1         1 0RE       0.017200
     11 H3          -2.1190     1.7230     0.1230 h1         1 0RE       0.017200
     12 H4          -1.0460    -0.1720     1.2950 h1         1 0RE       0.083700
     13 H5          -1.1480    -1.4990    -1.1810 ho         1 0RE       0.395000
     14 H6           0.2320     0.5350    -1.3830 hc         1 0RE       0.039700
     15 H7           0.2340     1.5600     0.0350 hc         1 0RE       0.039700
     16 H8           1.4760    -0.1790     1.3180 hc         1 0RE       0.046700
     17 H9           1.4880    -1.2240    -0.0850 hc         1 0RE       0.046700
     18 H10          2.7780     0.4930    -1.3610 hc         1 0RE       0.034700
     19 H11          2.7530     1.5510     0.0300 hc         1 0RE       0.034700
     20 H12          4.0560    -0.1470     1.3540 hc         1 0RE       0.032700
     21 H13          4.0750    -1.2180    -0.0430 hc         1 0RE       0.032700
     22 H14          4.9230     0.3250    -0.1050 hc         1 0RE       0.032700
@<TRIPOS>BOND
     1     1     2 1   
     2     1     9 1   
     3     2     3 1   
     4     2    10 1   
     5     2    11 1   
     6     3     4 1   
     7     3     5 1   
     8     3    12 1   
     9     4    13 1   
    10     5     6 1   
    11     5    14 1   
    12     5    15 1   
    13     6     7 1   
    14     6    16 1   
    15     6    17 1   
    16     7     8 1   
    17     7    18 1   
    18     7    19 1   
    19     8    20 1   
    20     8    21 1   
    21     8    22 1   
@<TRIPOS>SUBSTRUCTURE
     1 0RE         1 TEMP              0 ****  ****    0 ROOT
