@<TRIPOS>MOLECULE
0RF
   64    67     1     0     0
SMALL
No Charge or Current Charge


@<TRIPOS>ATOM
      1 N1          25.2210     7.7820     9.3060 nb         1 0RF      -0.268000
      2 C2          24.0080     8.1300     8.8180 ca         1 0RF       0.152900
      3 N3          23.1400     7.3270     8.1650 nb         1 0RF      -0.171000
      4 C4          23.5360     6.0490     7.9990 ca         1 0RF       0.132300
      5 C5          24.7560     5.5920     8.4660 ca         1 0RF      -0.239300
      6 C6          25.6010     6.4990     9.1320 ca         1 0RF       0.393900
      7 C7          22.7760     4.9680     7.2570 c5         1 0RF       0.113000
      8 C8          23.5250     3.6900     7.7970 c5         1 0RF      -0.115400
      9 C9          25.0060     4.1480     8.0910 c5         1 0RF       0.008600
     10 N10         26.8670     6.1310     9.6280 nh         1 0RF      -0.773300
     11 C11         25.9590     4.0180     6.8840 c3         1 0RF      -0.089100
     12 O12         21.3790     4.9370     7.5650 oh         1 0RF      -0.635000
     13 C13         28.0500     7.0430     9.5150 c6         1 0RF       0.191800
     14 C14         28.4690     7.6190    10.8950 c6         1 0RF       0.066000
     15 N15         28.6720     6.5360    11.8970 n          1 0RF      -0.405800
     16 C16         27.4380     5.7100    12.0510 c6         1 0RF       0.066000
     17 C17         26.9880     5.0940    10.6970 c6         1 0RF       0.191800
     18 C18         29.9700     6.0850    12.2440 c          1 0RF       0.609100
     19 C19         30.1300     4.9990    13.3350 c3         1 0RF      -0.092400
     20 O20         30.9480     6.5340    11.6550 o          1 0RF      -0.619100
     21 C21         30.1260     3.6050    12.6940 ca         1 0RF      -0.086300
     22 C22         31.3970     5.2050    14.1950 c3         1 0RF       0.176800
     23 N23         31.3170     6.4700    14.9570 n7         1 0RF      -0.873400
     24 C24         29.1680     2.6460    13.0870 ca         1 0RF      -0.098500
     25 C25         29.1500     1.3720    12.4910 ca         1 0RF      -0.102500
     26 C26         30.0910     1.0460    11.5030 ca         1 0RF       0.124000
     27 C27         31.0530     1.9890    11.1110 ca         1 0RF      -0.102500
     28 C28         31.0720     3.2640    11.7050 ca         1 0RF      -0.098500
     29 Cl1         30.0670    -0.5470    10.7570 cl         1 0RF      -0.208000
     30 C29         32.4440     6.7560    15.8640 c3         1 0RF       0.175500
     31 C30         32.3900     8.2450    16.2570 c3         1 0RF      -0.090600
     32 C31         32.4010     5.8370    17.1050 c3         1 0RF      -0.090600
     33 H1          23.7030     9.1650     8.9600 h5         1 0RF       0.049100
     34 H2          22.9360     5.0890     6.1760 h1         1 0RF       0.053700
     35 H3          23.0600     3.3430     8.7280 hc         1 0RF       0.058200
     36 H4          23.4750     2.8500     7.0950 hc         1 0RF       0.058200
     37 H5          25.4360     3.5600     8.9090 hc         1 0RF       0.051700
     38 H6          26.0730     2.9700     6.5850 hc         1 0RF       0.040367
     39 H7          25.5850     4.5770     6.0180 hc         1 0RF       0.040367
     40 H8          26.9550     4.4060     7.1290 hc         1 0RF       0.040367
     41 H9          20.9920     4.1870     7.0620 ho         1 0RF       0.442000
     42 H10         28.9000     6.4900     9.0900 h1         1 0RF       0.071950
     43 H11         27.8460     7.8740     8.8230 h1         1 0RF       0.071950
     44 H12         29.3760     8.2280    10.7810 h1         1 0RF       0.069950
     45 H13         27.6770     8.2920    11.2540 h1         1 0RF       0.069950
     46 H14         26.6310     6.3530    12.4290 h1         1 0RF       0.069950
     47 H15         27.5620     4.9020    12.7810 h1         1 0RF       0.069950
     48 H16         26.0270     4.5820    10.8540 h1         1 0RF       0.071950
     49 H17         27.7120     4.3240    10.3910 h1         1 0RF       0.071950
     50 H18         29.2640     5.0610    14.0010 hc         1 0RF       0.079700
     51 H19         31.4800     4.3500    14.8790 h1         1 0RF       0.042200
     52 H20         32.2880     5.1950    13.5510 h1         1 0RF       0.042200
     53 H21         31.2880     7.2320    14.2680 hn         1 0RF       0.424000
     54 H23         28.4350     2.8810    13.8560 ha         1 0RF       0.127000
     55 H24         28.4090     0.6380    12.7970 ha         1 0RF       0.133000
     56 H25         31.7830     1.7330    10.3470 ha         1 0RF       0.133000
     57 H26         31.8250     3.9840    11.3900 ha         1 0RF       0.127000
     58 H27         33.3950     6.5880    15.3400 h1         1 0RF       0.020700
     59 H28         33.2320     8.4990    16.9120 hc         1 0RF       0.038033
     60 H29         32.4500     8.8840    15.3680 hc         1 0RF       0.038033
     61 H30         31.4590     8.4780    16.7900 hc         1 0RF       0.038033
     62 H31         33.2020     6.1030    17.8050 hc         1 0RF       0.038033
     63 H32         31.4430     5.9320    17.6300 hc         1 0RF       0.038033
     64 H33         32.5420     4.7860    16.8280 hc         1 0RF       0.038033
@<TRIPOS>BOND
     1     1     2 ar  
     2     1     6 ar  
     3     2     3 ar  
     4     2    33 1   
     5     3     4 ar  
     6     4     5 ar  
     7     4     7 1   
     8     5     6 ar  
     9     5     9 1   
    10     6    10 1   
    11     7     8 1   
    12     7    12 1   
    13     7    34 1   
    14     8     9 1   
    15     8    35 1   
    16     8    36 1   
    17     9    11 1   
    18     9    37 1   
    19    10    13 1   
    20    10    17 1   
    21    11    38 1   
    22    11    39 1   
    23    11    40 1   
    24    12    41 1   
    25    13    14 1   
    26    13    42 1   
    27    13    43 1   
    28    14    15 1   
    29    14    44 1   
    30    14    45 1   
    31    15    16 1   
    32    15    18 1   
    33    16    17 1   
    34    16    46 1   
    35    16    47 1   
    36    17    48 1   
    37    17    49 1   
    38    18    19 1   
    39    18    20 2   
    40    19    21 1   
    41    19    22 1   
    42    19    50 1   
    43    21    24 ar  
    44    21    28 ar  
    45    22    23 1   
    46    22    51 1   
    47    22    52 1   
    48    23    30 1   
    49    23    53 1   
    50    24    25 ar  
    51    24    54 1   
    52    25    26 ar  
    53    25    55 1   
    54    26    27 ar  
    55    26    29 1   
    56    27    28 ar  
    57    27    56 1   
    58    28    57 1   
    59    30    31 1   
    60    30    32 1   
    61    30    58 1   
    62    31    59 1   
    63    31    60 1   
    64    31    61 1   
    65    32    62 1   
    66    32    63 1   
    67    32    64 1   
@<TRIPOS>SUBSTRUCTURE
     1 0RF         1 TEMP              0 ****  ****    0 ROOT
