@<TRIPOS>MOLECULE
0RF
   64    67     1     0     0
SMALL
abcg2


@<TRIPOS>ATOM
      1 N1          25.9820     7.6740     8.3450 nb         1 0RF      -0.268000
      2 C2          24.8490     8.1160     7.8180 ca         1 0RF       0.152900
      3 N3          23.7250     7.4280     7.6360 nb         1 0RF      -0.171000
      4 C4          23.8020     6.1560     8.0500 ca         1 0RF       0.132300
      5 C5          24.9110     5.5680     8.6310 ca         1 0RF      -0.239300
      6 C6          26.0610     6.3910     8.7640 ca         1 0RF       0.393900
      7 C7          22.6900     5.1600     7.8360 c5         1 0RF       0.113000
      8 C8          23.1400     3.9520     8.6670 c5         1 0RF      -0.115400
      9 C9          24.6740     4.0820     8.8400 c5         1 0RF       0.008600
     10 N10         27.2760     5.9790     9.2330 nh         1 0RF      -0.773300
     11 C11         25.4640     3.2370     7.8330 c3         1 0RF      -0.089100
     12 O12         21.4360     5.7110     8.2340 oh         1 0RF      -0.635000
     13 C13         28.4210     6.8930     9.2290 c6         1 0RF       0.191800
     14 C14         28.6120     7.5380    10.6010 c6         1 0RF       0.066000
     15 N15         28.7430     6.4960    11.6190 n          1 0RF      -0.405800
     16 C16         27.6140     5.5710    11.6240 c6         1 0RF       0.066000
     17 C17         27.4430     4.9380    10.2420 c6         1 0RF       0.191800
     18 C18         29.9150     6.3230    12.2740 c          1 0RF       0.609100
     19 C19         30.0410     5.1100    13.2030 c3         1 0RF      -0.092400
     20 O20         30.8660     7.0960    12.1250 o          1 0RF      -0.619100
     21 C21         30.2220     3.8430    12.3890 ca         1 0RF      -0.086300
     22 C22         31.1960     5.2880    14.1930 c3         1 0RF       0.176800
     23 N23         30.9710     6.4280    15.0750 n7         1 0RF      -0.873400
     24 C24         29.5130     2.6880    12.7140 ca         1 0RF      -0.098500
     25 C25         29.6740     1.5160    11.9850 ca         1 0RF      -0.102500
     26 C26         30.5610     1.5060    10.9180 ca         1 0RF       0.124000
     27 C27         31.2860     2.6380    10.5750 ca         1 0RF      -0.102500
     28 C28         31.1110     3.8000    11.3150 ca         1 0RF      -0.098500
     29 CL1         30.7650     0.0380     9.9830 cl         1 0RF      -0.208000
     30 C29         31.9930     6.5890    16.1200 c3         1 0RF       0.175500
     31 C30         31.9110     8.0080    16.6720 c3         1 0RF      -0.090600
     32 C31         31.8040     5.5590    17.2310 c3         1 0RF      -0.090600
     33 H1          24.8440     9.1550     7.5020 h5         1 0RF       0.049100
     34 H2          22.6520     4.9160     6.7670 h1         1 0RF       0.053700
     35 H3          22.6560     4.0300     9.6430 hc         1 0RF       0.058200
     36 H4          22.8540     3.0010     8.2200 hc         1 0RF       0.058200
     37 H5          24.9330     3.7560     9.8460 hc         1 0RF       0.051700
     38 H6          25.2630     2.1760     7.9890 hc         1 0RF       0.040367
     39 H7          25.1800     3.4950     6.8100 hc         1 0RF       0.040367
     40 H8          26.5390     3.3990     7.9330 hc         1 0RF       0.040367
     41 H9          20.7370     5.1390     7.8940 ho         1 0RF       0.442000
     42 H10         29.3070     6.3010     8.9850 h1         1 0RF       0.071950
     43 H11         28.2790     7.6530     8.4700 h1         1 0RF       0.071950
     44 H12         29.5060     8.1540    10.6140 h1         1 0RF       0.069950
     45 H13         27.7460     8.1580    10.8430 h1         1 0RF       0.069950
     46 H14         26.7100     6.1330    11.8770 h1         1 0RF       0.069950
     47 H15         27.7430     4.7960    12.3690 h1         1 0RF       0.069950
     48 H16         26.5970     4.2670    10.2610 h1         1 0RF       0.071950
     49 H17         28.3340     4.3560     9.9950 h1         1 0RF       0.071950
     50 H18         29.1280     5.0190    13.7910 hc         1 0RF       0.079700
     51 H19         31.2490     4.3780    14.7910 h1         1 0RF       0.042200
     52 H20         32.1420     5.3690    13.6400 h1         1 0RF       0.042200
     53 H21         30.9800     7.2610    14.4960 hn         1 0RF       0.424000
     54 H23         28.8140     2.7040    13.5410 ha         1 0RF       0.127000
     55 H24         29.1130     0.6270    12.2390 ha         1 0RF       0.133000
     56 H25         31.9730     2.6150     9.7390 ha         1 0RF       0.133000
     57 H26         31.6700     4.6860    11.0410 ha         1 0RF       0.127000
     58 H27         32.9980     6.4470    15.6890 h1         1 0RF       0.020700
     59 H28         32.6650     8.1630    17.4450 hc         1 0RF       0.038033
     60 H29         32.0750     8.7450    15.8830 hc         1 0RF       0.038033
     61 H30         30.9260     8.1880    17.1110 hc         1 0RF       0.038033
     62 H31         32.5810     5.6730    17.9890 hc         1 0RF       0.038033
     63 H32         30.8310     5.6960    17.7100 hc         1 0RF       0.038033
     64 H33         31.8570     4.5370    16.8530 hc         1 0RF       0.038033
@<TRIPOS>BOND
     1     1     2 ar  
     2     1     6 ar  
     3     2     3 ar  
     4     2    33 1   
     5     3     4 ar  
     6     4     5 ar  
     7     4     7 1   
     8     5     6 ar  
     9     5     9 1   
    10     6    10 1   
    11     7     8 1   
    12     7    12 1   
    13     7    34 1   
    14     8     9 1   
    15     8    35 1   
    16     8    36 1   
    17     9    11 1   
    18     9    37 1   
    19    10    13 1   
    20    10    17 1   
    21    11    38 1   
    22    11    39 1   
    23    11    40 1   
    24    12    41 1   
    25    13    14 1   
    26    13    42 1   
    27    13    43 1   
    28    14    15 1   
    29    14    44 1   
    30    14    45 1   
    31    15    16 1   
    32    15    18 1   
    33    16    17 1   
    34    16    46 1   
    35    16    47 1   
    36    17    48 1   
    37    17    49 1   
    38    18    19 1   
    39    18    20 2   
    40    19    21 1   
    41    19    22 1   
    42    19    50 1   
    43    21    24 ar  
    44    21    28 ar  
    45    22    23 1   
    46    22    51 1   
    47    22    52 1   
    48    23    30 1   
    49    23    53 1   
    50    24    25 ar  
    51    24    54 1   
    52    25    26 ar  
    53    25    55 1   
    54    26    27 ar  
    55    26    29 1   
    56    27    28 ar  
    57    27    56 1   
    58    28    57 1   
    59    30    31 1   
    60    30    32 1   
    61    30    58 1   
    62    31    59 1   
    63    31    60 1   
    64    31    61 1   
    65    32    62 1   
    66    32    63 1   
    67    32    64 1   
@<TRIPOS>SUBSTRUCTURE
     1 0RF         1 TEMP              0 ****  ****    0 ROOT
