@<TRIPOS>MOLECULE
0RI
   67    71     1     0     0
SMALL
abcg2


@<TRIPOS>ATOM
      1 N3         -11.8230    -1.9460    -9.8380 na         1 0RI       0.283000
      2 C4         -11.7670     1.5410   -11.0140 ca         1 0RI      -0.104000
      3 C6         -12.1930     0.3830   -10.3820 ca         1 0RI      -0.075000
      4 C1         -10.5840     1.5500   -11.7400 ca         1 0RI      -0.094000
      5 O9         -12.3330    -2.6230   -12.6200 o          1 0RI      -0.558100
      6 N8          -7.5550    -0.5380   -12.1900 n8         1 0RI      -1.006200
      7 N           -9.5360     1.0650   -16.4220 n1         1 0RI      -0.465000
      8 C39         -9.5230    -1.3480   -17.3330 ca         1 0RI      -0.025000
      9 C38        -10.5950    -2.1910   -17.0400 ca         1 0RI      -0.066000
     10 C34         -8.4500    -1.7970   -18.1010 ca         1 0RI      -0.070000
     11 C35         -8.4640    -3.1010   -18.5690 ca         1 0RI      -0.121000
     12 C36         -9.5230    -3.9450   -18.2670 ca         1 0RI      -0.062000
     13 C37        -10.5970    -3.4990   -17.5000 ca         1 0RI      -0.085300
     14 C24        -11.7270    -4.4330   -17.1060 c3         1 0RI       0.272100
     15 N25        -12.0350    -5.3590   -18.1740 n7         1 0RI      -0.865400
     16 C26        -12.6260    -4.7610   -19.3620 c3         1 0RI       0.185800
     17 C32        -13.9430    -4.0500   -19.1590 cx         1 0RI      -0.170700
     18 C31        -15.1900    -4.8650   -18.9950 cx         1 0RI      -0.127900
     19 C33        -14.9650    -4.0810   -20.2540 cx         1 0RI      -0.127900
     20 C27        -11.3140    -5.1740   -15.8470 ca         1 0RI      -0.079300
     21 C29        -11.5750    -4.5760   -14.6180 ca         1 0RI      -0.109000
     22 C23        -10.6460    -6.3900   -15.8970 ca         1 0RI      -0.090000
     23 C22        -10.2450    -7.0080   -14.7200 ca         1 0RI      -0.123000
     24 C30        -10.5050    -6.3950   -13.5180 ca         1 0RI       0.118000
     25 F11        -10.1160    -6.9860   -12.3730 f          1 0RI      -0.185000
     26 C16        -11.1660    -5.1700   -13.4270 ca         1 0RI      -0.054000
     27 N13        -11.3600    -4.6350   -12.1520 ns         1 0RI      -0.131000
     28 C17        -11.9040    -3.4380   -11.8300 c          1 0RI       0.649700
     29 C21        -11.9570    -3.1890   -10.3670 cc         1 0RI      -0.219600
     30 C20        -12.2950    -4.0250    -9.3290 cd         1 0RI      -0.144000
     31 C18        -12.3460    -3.1740    -8.2190 cd         1 0RI       0.119300
     32 C19        -12.6480    -3.5260    -6.8060 c3         1 0RI       0.297700
     33 F5         -11.5410    -3.8470    -6.1220 f          1 0RI      -0.106000
     34 F7         -13.2280    -2.5140    -6.1590 f          1 0RI      -0.106000
     35 F2         -13.4650    -4.5800    -6.7400 f          1 0RI      -0.106000
     36 N15        -12.0500    -1.9310    -8.5390 nc         1 0RI      -0.439800
     37 C10        -11.4080    -0.7530   -10.4910 ca         1 0RI      -0.010200
     38 C12        -10.2180    -0.7520   -11.2010 ca         1 0RI      -0.075000
     39 C14         -9.7990     0.4050   -11.8470 ca         1 0RI      -0.070300
     40 C28         -8.5320     0.4220   -12.6660 c3         1 0RI       0.196100
     41 H4         -12.3620     2.4410   -10.9400 ha         1 0RI       0.122000
     42 H6         -13.1180     0.3610    -9.8210 ha         1 0RI       0.135000
     43 H1         -10.2630     2.4650   -12.2260 ha         1 0RI       0.119000
     44 H83         -6.8010    -0.6130   -12.8600 hn         1 0RI       0.400500
     45 H81         -7.1360    -0.2050   -11.3300 hn         1 0RI       0.400500
     46 H38        -11.4240    -1.8210   -16.4490 ha         1 0RI       0.128000
     47 H34         -7.6250    -1.1350   -18.3280 ha         1 0RI       0.124000
     48 H35         -7.6410    -3.4620   -19.1710 ha         1 0RI       0.120000
     49 H36         -9.5230    -4.9620   -18.6380 ha         1 0RI       0.133000
     50 H24        -12.5850    -3.8010   -16.8330 h1         1 0RI       0.043700
     51 H84        -12.6650    -6.0690   -17.8180 hn         1 0RI       0.421000
     52 H6M        -12.7640    -5.5630   -20.0910 h1         1 0RI       0.057200
     53 H26        -11.9020    -4.0720   -19.8060 h1         1 0RI       0.057200
     54 H32        -13.8990    -3.1280   -18.5880 hc         1 0RI       0.081700
     55 H31        -15.9470    -4.5190   -18.3030 hc         1 0RI       0.071700
     56 H6N        -15.0980    -5.9430   -19.0490 hc         1 0RI       0.071700
     57 H6O        -15.5650    -3.1960   -20.4210 hc         1 0RI       0.071700
     58 H33        -14.7240    -4.6300   -21.1570 hc         1 0RI       0.071700
     59 H29        -12.0990    -3.6330   -14.5970 ha         1 0RI       0.150000
     60 H23        -10.4390    -6.8650   -16.8460 ha         1 0RI       0.135000
     61 H22         -9.7290    -7.9590   -14.7350 ha         1 0RI       0.135000
     62 H13        -10.9890    -5.1800   -11.3870 hn         1 0RI       0.175000
     63 H20        -12.5140    -5.0800    -9.3780 ha         1 0RI       0.163000
     64 H12         -9.6050    -1.6430   -11.2440 ha         1 0RI       0.142000
     65 H28         -8.7900     0.1540   -13.6950 h1         1 0RI       0.043700
     66 H6L         -8.1620     1.4540   -12.7120 h1         1 0RI       0.043700
     67 C           -9.5300    -0.0110   -16.8340 cg         1 0RI       0.331000
@<TRIPOS>BOND
     1     1    29 1   
     2     1    36 1   
     3     1    37 1   
     4     2     3 ar  
     5     2     4 ar  
     6     2    41 1   
     7     3    37 ar  
     8     3    42 1   
     9     4    39 ar  
    10     4    43 1   
    11     5    28 2   
    12     6    40 1   
    13     6    44 1   
    14     6    45 1   
    15     7    67 3   
    16     8     9 ar  
    17     8    10 ar  
    18     8    67 1   
    19     9    13 ar  
    20     9    46 1   
    21    10    11 ar  
    22    10    47 1   
    23    11    12 ar  
    24    11    48 1   
    25    12    13 ar  
    26    12    49 1   
    27    13    14 1   
    28    14    15 1   
    29    14    20 1   
    30    14    50 1   
    31    15    16 1   
    32    15    51 1   
    33    16    17 1   
    34    16    52 1   
    35    16    53 1   
    36    17    18 1   
    37    17    19 1   
    38    17    54 1   
    39    18    19 1   
    40    18    55 1   
    41    18    56 1   
    42    19    57 1   
    43    19    58 1   
    44    20    21 ar  
    45    20    22 ar  
    46    21    26 ar  
    47    21    59 1   
    48    22    23 ar  
    49    22    60 1   
    50    23    24 ar  
    51    23    61 1   
    52    24    25 1   
    53    24    26 ar  
    54    26    27 1   
    55    27    28 1   
    56    27    62 1   
    57    28    29 1   
    58    29    30 2   
    59    30    31 1   
    60    30    63 1   
    61    31    32 1   
    62    31    36 2   
    63    32    33 1   
    64    32    34 1   
    65    32    35 1   
    66    37    38 ar  
    67    38    39 ar  
    68    38    64 1   
    69    39    40 1   
    70    40    65 1   
    71    40    66 1   
@<TRIPOS>SUBSTRUCTURE
     1 0RI         1 TEMP              0 ****  ****    0 ROOT
