@<TRIPOS>MOLECULE
0RI
   67    71     1     0     0
SMALL
No Charge or Current Charge


@<TRIPOS>ATOM
      1 N3         -11.4920    -2.0210    -9.6070 na         1 0RI       0.283000
      2 C4         -12.7180     1.3640   -10.5130 ca         1 0RI      -0.104000
      3 C6         -12.6840     0.0610    -9.9880 ca         1 0RI      -0.075000
      4 C1         -11.5970     1.8840   -11.1830 ca         1 0RI      -0.094000
      5 O9         -11.5950    -2.4480   -12.6350 o          1 0RI      -0.558100
      6 N8          -8.1970     2.1580   -11.1140 n8         1 0RI      -1.006200
      7 N           -7.8600    -0.0400   -18.1250 n1         1 0RI      -0.465000
      8 C39         -8.6610    -2.5150   -18.2680 ca         1 0RI      -0.025000
      9 C38         -9.9210    -2.8760   -17.7500 ca         1 0RI      -0.066000
     10 C34         -7.8420    -3.4950   -18.8600 ca         1 0RI      -0.070000
     11 C35         -8.2820    -4.8270   -18.9330 ca         1 0RI      -0.121000
     12 C36         -9.5380    -5.1840   -18.4150 ca         1 0RI      -0.062000
     13 C37        -10.3680    -4.2110   -17.8210 ca         1 0RI      -0.085300
     14 C24        -11.7360    -4.5890   -17.2480 c3         1 0RI       0.272100
     15 N25        -12.5610    -5.3320   -18.2260 n7         1 0RI      -0.865400
     16 C26        -12.8600    -4.6600   -19.5060 c3         1 0RI       0.185800
     17 C32        -13.7540    -3.4430   -19.2920 cx         1 0RI      -0.170700
     18 C31        -15.2170    -3.5990   -18.9450 cx         1 0RI      -0.127900
     19 C33        -14.8140    -3.0710   -20.3020 cx         1 0RI      -0.127900
     20 C27        -11.5800    -5.3710   -15.9410 ca         1 0RI      -0.079300
     21 C29        -11.5810    -4.6730   -14.7140 ca         1 0RI      -0.109000
     22 C23        -11.4140    -6.7720   -15.9370 ca         1 0RI      -0.090000
     23 C22        -11.2610    -7.4630   -14.7240 ca         1 0RI      -0.123000
     24 C30        -11.2670    -6.7600   -13.5110 ca         1 0RI       0.118000
     25 F11        -11.1160    -7.4440   -12.3540 f          1 0RI      -0.185000
     26 C16        -11.4230    -5.3590   -13.4870 ca         1 0RI      -0.054000
     27 N13        -11.4140    -4.7090   -12.2180 ns         1 0RI      -0.131000
     28 C17        -11.4950    -3.3750   -11.8420 c          1 0RI       0.649700
     29 C21        -11.4470    -3.1780   -10.3720 cc         1 0RI      -0.219600
     30 C20        -11.3640    -4.1490    -9.4010 cd         1 0RI      -0.144000
     31 C18        -11.3640    -3.5050    -8.1350 cd         1 0RI       0.119300
     32 C19        -11.2860    -4.1850    -6.7760 c3         1 0RI       0.297700
     33 F5         -10.1870    -3.8040    -6.0840 f          1 0RI      -0.106000
     34 F7         -12.3600    -3.8950    -6.0050 f          1 0RI      -0.106000
     35 F2         -11.2340    -5.5330    -6.8810 f          1 0RI      -0.106000
     36 N15        -11.4370    -2.1870    -8.2440 nc         1 0RI      -0.439800
     37 C10        -11.5280    -0.7290   -10.1320 ca         1 0RI      -0.010200
     38 C12        -10.4030    -0.2010   -10.7980 ca         1 0RI      -0.075000
     39 C14        -10.4320     1.1040   -11.3290 ca         1 0RI      -0.070300
     40 C28         -9.2170     1.6610   -12.0590 c3         1 0RI       0.196100
     41 H4         -13.6140     1.9710   -10.4020 ha         1 0RI       0.122000
     42 H6         -13.5550    -0.3360    -9.4700 ha         1 0RI       0.135000
     43 H1         -11.6330     2.8930   -11.5870 ha         1 0RI       0.119000
     44 H83         -7.4390     2.6030   -11.6460 hn         1 0RI       0.400500
     45 H81         -8.6010     2.9320   -10.5730 hn         1 0RI       0.400500
     46 H38        -10.5520    -2.1180   -17.2910 ha         1 0RI       0.128000
     47 H34         -6.8670    -3.2260   -19.2630 ha         1 0RI       0.124000
     48 H35         -7.6490    -5.5840   -19.3910 ha         1 0RI       0.120000
     49 H36         -9.8710    -6.2170   -18.4800 ha         1 0RI       0.133000
     50 H24        -12.2590    -3.6570   -16.9940 h1         1 0RI       0.043700
     51 H84        -13.4550    -5.5460   -17.7720 hn         1 0RI       0.421000
     52 H6M        -13.3740    -5.3620   -20.1780 h1         1 0RI       0.057200
     53 H26        -11.9380    -4.3480   -20.0180 h1         1 0RI       0.057200
     54 H32        -13.2240    -2.6140   -18.8280 hc         1 0RI       0.081700
     55 H31        -15.6470    -2.8970   -18.2340 hc         1 0RI       0.071700
     56 H6N        -15.6300    -4.6040   -18.8980 hc         1 0RI       0.071700
     57 H6O        -14.9750    -2.0140   -20.5030 hc         1 0RI       0.071700
     58 H33        -14.9580    -3.7220   -21.1610 hc         1 0RI       0.071700
     59 H29        -11.7030    -3.5950   -14.7380 ha         1 0RI       0.150000
     60 H23        -11.4030    -7.3280   -16.8720 ha         1 0RI       0.135000
     61 H22        -11.1350    -8.5430   -14.7240 ha         1 0RI       0.135000
     62 H13        -11.3270    -5.3480   -11.4400 hn         1 0RI       0.175000
     63 H20        -11.3110    -5.2240    -9.5520 ha         1 0RI       0.163000
     64 H12         -9.5050    -0.8050   -10.9050 ha         1 0RI       0.142000
     65 H28         -8.7710     0.8750   -12.6850 h1         1 0RI       0.043700
     66 H6L         -9.5240     2.4850   -12.7190 h1         1 0RI       0.043700
     67 C           -8.2140    -1.1510   -18.1910 cg         1 0RI       0.331000
@<TRIPOS>BOND
     1     1    29 1   
     2     1    36 1   
     3     1    37 1   
     4     2     3 ar  
     5     2     4 ar  
     6     2    41 1   
     7     3    37 ar  
     8     3    42 1   
     9     4    39 ar  
    10     4    43 1   
    11     5    28 2   
    12     6    40 1   
    13     6    44 1   
    14     6    45 1   
    15     7    67 3   
    16     8     9 ar  
    17     8    10 ar  
    18     8    67 1   
    19     9    13 ar  
    20     9    46 1   
    21    10    11 ar  
    22    10    47 1   
    23    11    12 ar  
    24    11    48 1   
    25    12    13 ar  
    26    12    49 1   
    27    13    14 1   
    28    14    15 1   
    29    14    20 1   
    30    14    50 1   
    31    15    16 1   
    32    15    51 1   
    33    16    17 1   
    34    16    52 1   
    35    16    53 1   
    36    17    18 1   
    37    17    19 1   
    38    17    54 1   
    39    18    19 1   
    40    18    55 1   
    41    18    56 1   
    42    19    57 1   
    43    19    58 1   
    44    20    21 ar  
    45    20    22 ar  
    46    21    26 ar  
    47    21    59 1   
    48    22    23 ar  
    49    22    60 1   
    50    23    24 ar  
    51    23    61 1   
    52    24    25 1   
    53    24    26 ar  
    54    26    27 1   
    55    27    28 1   
    56    27    62 1   
    57    28    29 1   
    58    29    30 2   
    59    30    31 1   
    60    30    63 1   
    61    31    32 1   
    62    31    36 2   
    63    32    33 1   
    64    32    34 1   
    65    32    35 1   
    66    37    38 ar  
    67    38    39 ar  
    68    38    64 1   
    69    39    40 1   
    70    40    65 1   
    71    40    66 1   
@<TRIPOS>SUBSTRUCTURE
     1 0RI         1 TEMP              0 ****  ****    0 ROOT
