@<TRIPOS>MOLECULE
0RK
   54    57     1     0     0
SMALL
bcc


@<TRIPOS>ATOM
      1 CL2         -7.9710     2.0860    -0.4270 cl         1 0RK      -0.111400
      2 C27         -6.2630     1.8120    -0.4850 ca         1 0RK      -0.043600
      3 C14         -5.6670     1.0160     0.4770 ca         1 0RK       0.012000
      4 C31         -5.5050     2.3870    -1.4920 ca         1 0RK      -0.031000
      5 C26         -4.1380     2.1720    -1.5460 ca         1 0RK      -0.233000
      6 C21         -3.5130     1.3800    -0.5870 ca         1 0RK       0.247100
      7 O33         -2.2130     1.1090    -0.5550 os         1 0RK      -0.309900
      8 C35         -1.3650     1.5880    -1.5870 c3         1 0RK       0.125700
      9 C3          -4.2980     0.8040     0.4210 ca         1 0RK      -0.339500
     10 S1          -3.5450    -0.2150     1.6670 sy         1 0RK       1.341200
     11 O16         -2.4400     0.4870     2.2880 o          1 0RK      -0.598800
     12 O17         -4.6290    -0.7020     2.5020 o          1 0RK      -0.598800
     13 N2          -2.9530    -1.5390     0.8830 nh         1 0RK      -0.624900
     14 C12         -3.9320    -2.4240     0.2150 c5         1 0RK       0.209800
     15 C19         -3.0710    -3.3860    -0.6130 c5         1 0RK      -0.033100
     16 C6          -1.7020    -2.7850    -0.5570 ca         1 0RK      -0.119300
     17 C4          -1.6690    -1.7150     0.3310 ca         1 0RK       0.157600
     18 C13         -0.5650    -3.2000    -1.2310 ca         1 0RK      -0.054300
     19 C34         -0.6270    -4.3430    -2.1980 c3         1 0RK      -0.044800
     20 C18          0.6220    -2.5130    -0.9860 ca         1 0RK      -0.127000
     21 C9           0.6560    -1.4500    -0.0880 ca         1 0RK      -0.126600
     22 C8          -0.4910    -1.0350     0.5850 ca         1 0RK      -0.094000
     23 C7           1.9020    -0.6580     0.1350 c          1 0RK       0.675700
     24 O24          1.8610     0.5400     0.3580 o          1 0RK      -0.585100
     25 N15          3.0530    -1.3770     0.0710 ns         1 0RK      -0.455100
     26 C23          4.3730    -0.9290     0.1450 ca         1 0RK       0.027600
     27 C20          4.7480     0.4110     0.0960 ca         1 0RK      -0.166000
     28 C10          6.0970     0.7440     0.1200 ca         1 0RK       0.071400
     29 CL1          6.4490     2.4460     0.0820 cl         1 0RK      -0.120400
     30 C29          5.3700    -1.9000     0.2570 ca         1 0RK      -0.204000
     31 C22          6.6980    -1.5310     0.3130 ca         1 0RK      -0.083000
     32 C5           7.1110    -0.2010     0.2250 ca         1 0RK      -0.124600
     33 C11          8.6060     0.1030     0.2160 c          1 0RK       0.931200
     34 O25          9.3060    -0.6250     0.9440 o          1 0RK      -0.810800
     35 O30          8.9880     1.0130    -0.5360 o          1 0RK      -0.810800
     36 H1          -6.2610     0.5640     1.2580 ha         1 0RK       0.175000
     37 H2          -5.9760     3.0040    -2.2450 ha         1 0RK       0.145000
     38 H3          -3.5710     2.6290    -2.3450 ha         1 0RK       0.146000
     39 H4          -0.3670     1.2430    -1.3340 h1         1 0RK       0.058367
     40 H5          -1.6530     1.1830    -2.5590 h1         1 0RK       0.058367
     41 H6          -1.3660     2.6780    -1.6320 h1         1 0RK       0.058367
     42 H7          -4.5410    -2.9390     0.9530 h1         1 0RK       0.058700
     43 H8          -4.5920    -1.8390    -0.4320 h1         1 0RK       0.058700
     44 H9          -3.0700    -4.3900    -0.1820 hc         1 0RK       0.058700
     45 H10         -3.4470    -3.4780    -1.6330 hc         1 0RK       0.058700
     46 H11         -1.3440    -4.1460    -2.9970 hc         1 0RK       0.042367
     47 H12          0.3420    -4.5310    -2.6570 hc         1 0RK       0.042367
     48 H13         -0.9470    -5.2630    -1.7040 hc         1 0RK       0.042367
     49 H14          1.5110    -2.8030    -1.5320 ha         1 0RK       0.141000
     50 H15         -0.4420    -0.2060     1.2720 ha         1 0RK       0.194000
     51 H16          2.9520    -2.3790     0.0200 hn         1 0RK       0.309500
     52 H17          4.0110     1.1940     0.0340 ha         1 0RK       0.155000
     53 H18          5.1020    -2.9490     0.3060 ha         1 0RK       0.106000
     54 H19          7.4500    -2.3010     0.4170 ha         1 0RK       0.147000
@<TRIPOS>BOND
     1     1     2 1   
     2     2     3 ar  
     3     2     4 ar  
     4     3     9 ar  
     5     3    36 1   
     6     4     5 ar  
     7     4    37 1   
     8     5     6 ar  
     9     5    38 1   
    10     6     7 1   
    11     6     9 ar  
    12     7     8 1   
    13     8    39 1   
    14     8    40 1   
    15     8    41 1   
    16     9    10 1   
    17    10    11 2   
    18    10    12 2   
    19    10    13 1   
    20    13    14 1   
    21    13    17 1   
    22    14    15 1   
    23    14    42 1   
    24    14    43 1   
    25    15    16 1   
    26    15    44 1   
    27    15    45 1   
    28    16    17 ar  
    29    16    18 ar  
    30    17    22 ar  
    31    18    19 1   
    32    18    20 ar  
    33    19    46 1   
    34    19    47 1   
    35    19    48 1   
    36    20    21 ar  
    37    20    49 1   
    38    21    22 ar  
    39    21    23 1   
    40    22    50 1   
    41    23    24 2   
    42    23    25 1   
    43    25    26 1   
    44    25    51 1   
    45    26    27 ar  
    46    26    30 ar  
    47    27    28 ar  
    48    27    52 1   
    49    28    29 1   
    50    28    32 ar  
    51    30    31 ar  
    52    30    53 1   
    53    31    32 ar  
    54    31    54 1   
    55    32    33 1   
    56    33    34 1   
    57    33    35 1   
@<TRIPOS>SUBSTRUCTURE
     1 0RK         1 TEMP              0 ****  ****    0 ROOT
