@<TRIPOS>MOLECULE
0RK
   54    57     1     0     0
SMALL
No Charge or Current Charge


@<TRIPOS>ATOM
      1 Cl2         -5.2890     0.2100    -3.6580 cl         1 0RK      -0.203000
      2 C27         -4.2500     0.7650    -2.3510 ca         1 0RK       0.048000
      3 C14         -4.4620     0.3070    -1.0430 ca         1 0RK       0.030000
      4 C31         -3.2080     1.6630    -2.6170 ca         1 0RK      -0.013000
      5 C26         -2.3810     2.1050    -1.5720 ca         1 0RK      -0.215000
      6 C21         -2.5840     1.6490    -0.2480 ca         1 0RK       0.247100
      7 O33         -1.7770     2.0870     0.7800 os         1 0RK      -0.333100
      8 C35         -0.6340     2.9370     0.5720 c3         1 0RK       0.148900
      9 C3          -3.6310     0.7370     0.0150 ca         1 0RK      -0.339500
     10 S1          -3.9610     0.0490     1.6510 sy         1 0RK       1.199600
     11 O16         -3.0850     0.6220     2.6770 o          1 0RK      -0.528000
     12 O17         -5.4150    -0.0010     1.8410 o          1 0RK      -0.528000
     13 N2          -3.4530    -1.5580     1.3890 nh         1 0RK      -0.763300
     14 C12         -4.4630    -2.6050     1.0720 c5         1 0RK       0.209800
     15 C19         -3.6780    -3.5510     0.0750 c5         1 0RK      -0.033100
     16 C6          -2.2820    -2.9440     0.0630 ca         1 0RK      -0.119300
     17 C4          -2.2050    -1.8040     0.8320 ca         1 0RK       0.296000
     18 C13         -1.1580    -3.4200    -0.6350 ca         1 0RK      -0.054300
     19 C34         -1.2500    -4.6710    -1.4970 c3         1 0RK      -0.044800
     20 C18          0.0570    -2.7100    -0.5230 ca         1 0RK      -0.109000
     21 C9           0.1560    -1.5440     0.2860 ca         1 0RK      -0.126600
     22 C8          -0.9990    -1.1010     0.9760 ca         1 0RK      -0.076000
     23 C7           1.4510    -0.7630     0.4330 c          1 0RK       0.608700
     24 O24          1.5090     0.2330     1.1460 o          1 0RK      -0.585100
     25 N15          2.5370    -1.2530    -0.2870 ns         1 0RK      -0.129000
     26 C23          3.8850    -0.8150    -0.4180 ca         1 0RK      -0.065000
     27 C20          4.4110     0.3220     0.2340 ca         1 0RK      -0.148000
     28 C10          5.7550     0.6950     0.0540 ca         1 0RK       0.163000
     29 Cl1          6.3530     2.1040     0.9300 cl         1 0RK      -0.212000
     30 C29          4.7330    -1.5710    -1.2460 ca         1 0RK      -0.186000
     31 C22          6.0770    -1.2030    -1.4280 ca         1 0RK      -0.065000
     32 C5           6.5970    -0.0630    -0.7840 ca         1 0RK      -0.124600
     33 C11          8.0330     0.3180    -0.9940 c          1 0RK       0.720600
     34 O25          8.8910    -0.5010    -0.6930 o          1 0RK      -0.705500
     35 O30          8.2780     1.3850    -1.5370 o          1 0RK      -0.705500
     36 H1          -5.2760    -0.3910    -0.8610 ha         1 0RK       0.157000
     37 H2          -3.0440     2.0180    -3.6320 ha         1 0RK       0.127000
     38 H3          -1.5880     2.8060    -1.8130 ha         1 0RK       0.128000
     39 H4          -0.1240     3.1270     1.5250 h1         1 0RK       0.058367
     40 H5           0.0870     2.4630    -0.1070 h1         1 0RK       0.058367
     41 H6          -0.9350     3.9040     0.1510 h1         1 0RK       0.058367
     42 H7          -4.7620    -3.1500     1.9780 h1         1 0RK       0.058700
     43 H8          -5.3680    -2.2080     0.5950 h1         1 0RK       0.058700
     44 H9          -3.6790    -4.5890     0.4240 hc         1 0RK       0.058700
     45 H10         -4.1330    -3.5390    -0.9220 hc         1 0RK       0.058700
     46 H11         -2.0040    -4.5500    -2.2850 hc         1 0RK       0.042367
     47 H12         -0.2970    -4.9020    -1.9860 hc         1 0RK       0.042367
     48 H13         -1.5320    -5.5430    -0.8940 hc         1 0RK       0.042367
     49 H14          0.9200    -3.0840    -1.0690 ha         1 0RK       0.123000
     50 H15         -0.9500    -0.2290     1.6190 ha         1 0RK       0.176000
     51 H16          2.3310    -2.0820    -0.8270 hn         1 0RK       0.143000
     52 H17          3.8000     0.9320     0.8900 ha         1 0RK       0.137000
     53 H18          4.3510    -2.4520    -1.7560 ha         1 0RK       0.088000
     54 H19          6.7180    -1.8010    -2.0740 ha         1 0RK       0.129000
@<TRIPOS>BOND
     1     1     2 1   
     2     2     3 ar  
     3     2     4 ar  
     4     3     9 ar  
     5     3    36 1   
     6     4     5 ar  
     7     4    37 1   
     8     5     6 ar  
     9     5    38 1   
    10     6     7 1   
    11     6     9 ar  
    12     7     8 1   
    13     8    39 1   
    14     8    40 1   
    15     8    41 1   
    16     9    10 1   
    17    10    11 2   
    18    10    12 2   
    19    10    13 1   
    20    13    14 1   
    21    13    17 1   
    22    14    15 1   
    23    14    42 1   
    24    14    43 1   
    25    15    16 1   
    26    15    44 1   
    27    15    45 1   
    28    16    17 ar  
    29    16    18 ar  
    30    17    22 ar  
    31    18    19 1   
    32    18    20 ar  
    33    19    46 1   
    34    19    47 1   
    35    19    48 1   
    36    20    21 ar  
    37    20    49 1   
    38    21    22 ar  
    39    21    23 1   
    40    22    50 1   
    41    23    24 2   
    42    23    25 1   
    43    25    26 1   
    44    25    51 1   
    45    26    27 ar  
    46    26    30 ar  
    47    27    28 ar  
    48    27    52 1   
    49    28    29 1   
    50    28    32 ar  
    51    30    31 ar  
    52    30    53 1   
    53    31    32 ar  
    54    31    54 1   
    55    32    33 1   
    56    33    34 1   
    57    33    35 1   
@<TRIPOS>SUBSTRUCTURE
     1 0RK         1 TEMP              0 ****  ****    0 ROOT
