@<TRIPOS>MOLECULE
0RM
   47    48     1     0     0
SMALL
No Charge or Current Charge


@<TRIPOS>ATOM
      1 O16         -1.4230     1.2750     1.0480 o          1 0RM      -0.617100
      2 C15         -1.6100     0.6600     0.0040 c          1 0RM       0.624700
      3 N14         -0.6580     0.6480    -0.9930 ns         1 0RM      -0.432900
      4 C9           0.6890     1.2750    -0.9150 c3         1 0RM      -0.030300
      5 C5           1.8150     0.3210    -0.4420 c5         1 0RM       0.347500
      6 S1           3.3090     1.2850     0.0590 ss         1 0RM      -0.525000
      7 C2           3.9300    -0.0880     1.1520 c5         1 0RM       0.087000
      8 C10          5.2640    -0.6180     0.5580 c3         1 0RM      -0.060600
      9 C6           4.2300     0.5290     2.5420 c3         1 0RM      -0.060600
     10 C3           2.7410    -1.1230     1.2310 c5         1 0RM       0.036500
     11 C11          3.0760    -2.4800     0.4580 c          1 0RM       0.732000
     12 O12          2.8870    -2.5770    -0.7490 o          1 0RM      -0.731000
     13 O13          3.4250    -3.4510     1.1180 o          1 0RM      -0.731000
     14 N4           1.4970    -0.3630     0.8260 n7         1 0RM      -0.824400
     15 C7           1.0650     1.8620    -2.2970 c          1 0RM       0.732000
     16 O8           1.2650     1.0840    -3.2210 o          1 0RM      -0.721000
     17 OG           1.0290     3.0770    -2.4430 o          1 0RM      -0.721000
     18 C17         -2.8670    -0.1430    -0.2600 ca         1 0RM      -0.191600
     19 C18         -4.1150     0.3240     0.2230 ca         1 0RM       0.199600
     20 O25         -4.1730     1.5380     0.8840 os         1 0RM      -0.295100
     21 C26         -5.3960     2.0890     1.4010 c3         1 0RM       0.154400
     22 C19         -5.2900    -0.4230    -0.0120 ca         1 0RM      -0.255500
     23 C20         -5.2380    -1.6250    -0.7220 ca         1 0RM      -0.049000
     24 C21         -4.0130    -2.0940    -1.2050 ca         1 0RM      -0.255500
     25 C22         -2.8240    -1.3660    -0.9800 ca         1 0RM       0.199600
     26 O23         -1.6090    -1.8520    -1.4270 os         1 0RM      -0.295100
     27 C24         -1.4710    -3.1060    -2.1160 c3         1 0RM       0.154400
     28 H1          -0.8710     0.0700    -1.7980 hn         1 0RM       0.321500
     29 H2           0.6340     2.1130    -0.2090 h1         1 0RM       0.043700
     30 H3           2.0640    -0.3860    -1.2480 h2         1 0RM       0.139700
     31 H4           6.0320     0.1650     0.5460 hc         1 0RM       0.023367
     32 H5           5.6590    -1.4550     1.1470 hc         1 0RM       0.023367
     33 H6           5.1410    -0.9600    -0.4760 hc         1 0RM       0.023367
     34 H7           3.3280     0.9700     2.9840 hc         1 0RM       0.023367
     35 H8           4.6020    -0.2300     3.2400 hc         1 0RM       0.023367
     36 H9           4.9860     1.3210     2.4770 hc         1 0RM       0.023367
     37 H10          2.6110    -1.4340     2.2770 h1         1 0RM       0.035700
     38 H12          1.3180     0.3740     1.5110 hn         1 0RM       0.374000
     39 H15         -5.8440     1.4150     2.1420 h1         1 0RM       0.031033
     40 H16         -5.2000     3.0510     1.8900 h1         1 0RM       0.031033
     41 H17         -6.1190     2.2590     0.5930 h1         1 0RM       0.031033
     42 H18         -6.2580    -0.0830     0.3420 ha         1 0RM       0.102500
     43 H19         -6.1480    -2.1940    -0.9000 ha         1 0RM       0.085000
     44 H20         -4.0080    -3.0340    -1.7490 ha         1 0RM       0.102500
     45 H21         -2.0460    -3.1020    -3.0510 h1         1 0RM       0.031033
     46 H22         -0.4180    -3.2860    -2.3650 h1         1 0RM       0.031033
     47 H23         -1.8190    -3.9350    -1.4880 h1         1 0RM       0.031033
@<TRIPOS>BOND
     1     1     2 2   
     2     2     3 1   
     3     2    18 1   
     4     3     4 1   
     5     3    28 1   
     6     4     5 1   
     7     4    15 1   
     8     4    29 1   
     9     5     6 1   
    10     5    14 1   
    11     5    30 1   
    12     6     7 1   
    13     7     8 1   
    14     7     9 1   
    15     7    10 1   
    16     8    31 1   
    17     8    32 1   
    18     8    33 1   
    19     9    34 1   
    20     9    35 1   
    21     9    36 1   
    22    10    11 1   
    23    10    14 1   
    24    10    37 1   
    25    11    12 1   
    26    11    13 1   
    27    14    38 1   
    28    15    16 1   
    29    15    17 1   
    30    18    19 ar  
    31    18    25 ar  
    32    19    20 1   
    33    19    22 ar  
    34    20    21 1   
    35    21    39 1   
    36    21    40 1   
    37    21    41 1   
    38    22    23 ar  
    39    22    42 1   
    40    23    24 ar  
    41    23    43 1   
    42    24    25 ar  
    43    24    44 1   
    44    25    26 1   
    45    26    27 1   
    46    27    45 1   
    47    27    46 1   
    48    27    47 1   
@<TRIPOS>SUBSTRUCTURE
     1 0RM         1 TEMP              0 ****  ****    0 ROOT
