@<TRIPOS>MOLECULE
0RM
   47    48     1     0     0
SMALL
abcg2


@<TRIPOS>ATOM
      1 O16         -2.1440     1.3350     1.7700 o          1 0RM      -0.617100
      2 C15         -1.9380     0.5620     0.8450 c          1 0RM       0.624700
      3 N14         -0.7420     0.3830     0.2850 ns         1 0RM      -0.432900
      4 C9           0.4380     1.0830     0.7440 c3         1 0RM      -0.030300
      5 C5           1.6020     0.6250    -0.1210 c5         1 0RM       0.347500
      6 S1           3.1950     1.3980     0.4270 ss         1 0RM      -0.525000
      7 C2           4.1540    -0.1470     0.1510 c5         1 0RM       0.087000
      8 C10          5.3870     0.1540    -0.6930 c3         1 0RM      -0.060600
      9 C6           4.5890    -0.7010     1.5080 c3         1 0RM      -0.060600
     10 C3           3.1390    -1.1360    -0.5170 c5         1 0RM       0.036500
     11 C11          3.2670    -1.1970    -2.0540 c          1 0RM       0.732000
     12 O12          2.5800    -0.4120    -2.7350 o          1 0RM      -0.731000
     13 O13          4.0750    -2.0430    -2.4870 o          1 0RM      -0.731000
     14 N4           1.7960    -0.7960    -0.0760 n7         1 0RM      -0.824400
     15 C7           0.2990     2.6250     0.6190 c          1 0RM       0.732000
     16 O8          -0.2670     3.0450    -0.4030 o          1 0RM      -0.721000
     17 OG           0.8260     3.2910     1.5290 o          1 0RM      -0.721000
     18 C17         -3.0330    -0.2870     0.2660 ca         1 0RM      -0.191600
     19 C18         -3.9190     0.2530    -0.6650 ca         1 0RM       0.199600
     20 O25         -3.6680     1.5210    -1.0300 os         1 0RM      -0.295100
     21 C26         -4.5100     2.1290    -1.9910 c3         1 0RM       0.154400
     22 C19         -4.9710    -0.5160    -1.1620 ca         1 0RM      -0.255500
     23 C20         -5.1200    -1.8160    -0.7050 ca         1 0RM      -0.049000
     24 C21         -4.2570    -2.3720     0.2260 ca         1 0RM      -0.255500
     25 C22         -3.2080    -1.5950     0.7160 ca         1 0RM       0.199600
     26 O23         -2.3120    -2.0170     1.6250 os         1 0RM      -0.295100
     27 C24         -2.4020    -3.3420     2.1110 c3         1 0RM       0.154400
     28 H1          -0.6400    -0.3140    -0.4350 hn         1 0RM       0.321500
     29 H2           0.6470     0.8170     1.7860 h1         1 0RM       0.043700
     30 H3           1.4330     0.9310    -1.1510 h2         1 0RM       0.139700
     31 H4           6.0590     0.8310    -0.1630 hc         1 0RM       0.023367
     32 H5           5.9380    -0.7630    -0.9070 hc         1 0RM       0.023367
     33 H6           5.1200     0.6230    -1.6400 hc         1 0RM       0.023367
     34 H7           3.7330    -0.9890     2.1200 hc         1 0RM       0.023367
     35 H8           5.2180    -1.5850     1.3730 hc         1 0RM       0.023367
     36 H9           5.1650     0.0340     2.0710 hc         1 0RM       0.023367
     37 H10          3.3630    -2.1360    -0.1370 h1         1 0RM       0.035700
     38 H12          1.6810    -1.1090     0.8820 hn         1 0RM       0.374000
     39 H15         -5.5450     2.1920    -1.6450 h1         1 0RM       0.031033
     40 H16         -4.1270     3.1350    -2.1400 h1         1 0RM       0.031033
     41 H17         -4.4880     1.5980    -2.9460 h1         1 0RM       0.031033
     42 H18         -5.6660    -0.1210    -1.8890 ha         1 0RM       0.102500
     43 H19         -5.9340    -2.4170    -1.0890 ha         1 0RM       0.085000
     44 H20         -4.4120    -3.3900     0.5550 ha         1 0RM       0.102500
     45 H21         -2.2780    -4.0780     1.3120 h1         1 0RM       0.031033
     46 H22         -1.5930    -3.4630     2.8260 h1         1 0RM       0.031033
     47 H23         -3.3510    -3.5270     2.6200 h1         1 0RM       0.031033
@<TRIPOS>BOND
     1     1     2 2   
     2     2     3 1   
     3     2    18 1   
     4     3     4 1   
     5     3    28 1   
     6     4     5 1   
     7     4    15 1   
     8     4    29 1   
     9     5     6 1   
    10     5    14 1   
    11     5    30 1   
    12     6     7 1   
    13     7     8 1   
    14     7     9 1   
    15     7    10 1   
    16     8    31 1   
    17     8    32 1   
    18     8    33 1   
    19     9    34 1   
    20     9    35 1   
    21     9    36 1   
    22    10    11 1   
    23    10    14 1   
    24    10    37 1   
    25    11    12 1   
    26    11    13 1   
    27    14    38 1   
    28    15    16 1   
    29    15    17 1   
    30    18    19 ar  
    31    18    25 ar  
    32    19    20 1   
    33    19    22 ar  
    34    20    21 1   
    35    21    39 1   
    36    21    40 1   
    37    21    41 1   
    38    22    23 ar  
    39    22    42 1   
    40    23    24 ar  
    41    23    43 1   
    42    24    25 ar  
    43    24    44 1   
    44    25    26 1   
    45    26    27 1   
    46    27    45 1   
    47    27    46 1   
    48    27    47 1   
@<TRIPOS>SUBSTRUCTURE
     1 0RM         1 TEMP              0 ****  ****    0 ROOT
