@<TRIPOS>MOLECULE
0RN
   25    26     1     0     0
SMALL
No Charge or Current Charge


@<TRIPOS>ATOM
      1 CG2         -0.1610    -1.9870    -1.2610 c3         1 0RN      -0.080600
      2 CB           0.0390    -1.2990     0.1260 c5         1 0RN      -0.142000
      3 CG1          0.0070    -2.3850     1.2360 c3         1 0RN      -0.080600
      4 SAO          1.7300    -0.4360     0.1490 s6         1 0RN       0.946000
      5 OAE          2.0770    -0.0300     1.5190 o          1 0RN      -0.537500
      6 OAF          2.7120    -1.1740    -0.6590 o          1 0RN      -0.537500
      7 CAK          1.0280     1.0020    -0.8000 cy         1 0RN      -0.116300
      8 CAH          1.2620     2.4970    -0.3620 cy         1 0RN      -0.157400
      9 CAJ         -0.0780     2.3620     0.4140 c          1 0RN       0.563000
     10 OAD         -0.6780     3.0190     1.2520 o          1 0RN      -0.500000
     11 N           -0.3080     1.1090    -0.1710 nj         1 0RN      -0.331800
     12 CA          -0.9450    -0.0890     0.4060 c5         1 0RN      -0.033300
     13 C           -2.3990    -0.3650    -0.1130 c          1 0RN       0.738000
     14 O           -2.7390     0.0320    -1.2210 o          1 0RN      -0.701000
     15 OXT         -3.1990    -0.8850     0.6540 o          1 0RN      -0.701000
     16 H1           0.6220    -2.7300    -1.4600 hc         1 0RN       0.053867
     17 H2          -1.1200    -2.5160    -1.3100 hc         1 0RN       0.053867
     18 H3          -0.1450    -1.2640    -2.0850 hc         1 0RN       0.053867
     19 H4           0.7790    -3.1470     1.0760 hc         1 0RN       0.053867
     20 H5           0.1720    -1.9510     2.2300 hc         1 0RN       0.053867
     21 H6          -0.9630    -2.8960     1.2610 hc         1 0RN       0.053867
     22 H7           1.0270     0.7760    -1.8690 h2         1 0RN       0.117700
     23 H8           2.1090     2.6920     0.3020 hc         1 0RN       0.079200
     24 H9           1.1900     3.2540    -1.1490 hc         1 0RN       0.079200
     25 H10         -1.0250     0.0880     1.4860 h1         1 0RN       0.071700
@<TRIPOS>BOND
     1     1     2 1   
     2     1    16 1   
     3     1    17 1   
     4     1    18 1   
     5     2     3 1   
     6     2     4 1   
     7     2    12 1   
     8     3    19 1   
     9     3    20 1   
    10     3    21 1   
    11     4     5 2   
    12     4     6 2   
    13     4     7 1   
    14     7     8 1   
    15     7    11 1   
    16     7    22 1   
    17     8     9 1   
    18     8    23 1   
    19     8    24 1   
    20     9    10 2   
    21     9    11 1   
    22    11    12 1   
    23    12    13 1   
    24    12    25 1   
    25    13    14 1   
    26    13    15 1   
@<TRIPOS>SUBSTRUCTURE
     1 0RN         1 TEMP              0 ****  ****    0 ROOT
