@<TRIPOS>MOLECULE
0RN
   25    26     1     0     0
SMALL
abcg2


@<TRIPOS>ATOM
      1 CG2         -0.1780    -1.9520    -1.2140 c3         1 0RN      -0.080600
      2 CB           0.0150    -1.2660     0.1350 c5         1 0RN      -0.142000
      3 CG1          0.0330    -2.2770     1.2680 c3         1 0RN      -0.080600
      4 SAO          1.6410    -0.4010     0.0830 s6         1 0RN       0.946000
      5 OAE          1.9690     0.0650     1.4320 o          1 0RN      -0.537500
      6 OAF          2.6490    -1.1470    -0.6650 o          1 0RN      -0.537500
      7 CAK          0.9510     1.0010    -0.8350 cy         1 0RN      -0.116300
      8 CAH          1.2880     2.4030    -0.3150 cy         1 0RN      -0.157400
      9 CAJ         -0.0310     2.2740     0.4400 c          1 0RN       0.563000
     10 OAD         -0.6110     2.8890     1.2930 o          1 0RN      -0.500000
     11 N           -0.3420     1.0930    -0.1910 nj         1 0RN      -0.331800
     12 CA          -0.9740    -0.0940     0.3760 c5         1 0RN      -0.033300
     13 C           -2.3870    -0.3910    -0.1850 c          1 0RN       0.738000
     14 O           -2.7790     0.3080    -1.1280 o          1 0RN      -0.701000
     15 OXT         -2.9800    -1.3210     0.3910 o          1 0RN      -0.701000
     16 H1           0.6090    -2.6830    -1.3950 hc         1 0RN       0.053867
     17 H2          -1.1260    -2.4890    -1.2000 hc         1 0RN       0.053867
     18 H3          -0.2040    -1.2580    -2.0540 hc         1 0RN       0.053867
     19 H4           0.7980    -3.0370     1.1050 hc         1 0RN       0.053867
     20 H5           0.2050    -1.8060     2.2350 hc         1 0RN       0.053867
     21 H6          -0.9360    -2.7720     1.3030 hc         1 0RN       0.053867
     22 H7           0.9750     0.8110    -1.9080 h2         1 0RN       0.117700
     23 H8           2.1710     2.4940     0.3140 hc         1 0RN       0.079200
     24 H9           1.3040     3.1680    -1.0890 hc         1 0RN       0.079200
     25 H10         -1.0670     0.0650     1.4560 h1         1 0RN       0.071700
@<TRIPOS>BOND
     1     1     2 1   
     2     1    16 1   
     3     1    17 1   
     4     1    18 1   
     5     2     3 1   
     6     2     4 1   
     7     2    12 1   
     8     3    19 1   
     9     3    20 1   
    10     3    21 1   
    11     4     5 2   
    12     4     6 2   
    13     4     7 1   
    14     7     8 1   
    15     7    11 1   
    16     7    22 1   
    17     8     9 1   
    18     8    23 1   
    19     8    24 1   
    20     9    10 2   
    21     9    11 1   
    22    11    12 1   
    23    12    13 1   
    24    12    25 1   
    25    13    14 1   
    26    13    15 1   
@<TRIPOS>SUBSTRUCTURE
     1 0RN         1 TEMP              0 ****  ****    0 ROOT
