@<TRIPOS>MOLECULE
0RO
   50    53     1     0     0
SMALL
No Charge or Current Charge


@<TRIPOS>ATOM
      1 CAB          7.5020     0.6170     0.5610 c3         1 0RO      -0.078100
      2 CAY          6.1350     0.7570    -0.1490 c5         1 0RO       0.084000
      3 CAC          6.3420     0.7200    -1.6850 c3         1 0RO      -0.078100
      4 SAP          5.0510    -0.6460     0.3270 ss         1 0RO      -0.416200
      5 CAL          5.3130     2.0050     0.3250 c5         1 0RO       0.122800
      6 NAM          3.8560     1.7370     0.1010 n2         1 0RO      -0.675900
      7 CAR          3.6850     0.4670     0.1650 c2         1 0RO       0.699100
      8 NAW          2.4510    -0.1310     0.0120 nh         1 0RO      -0.737600
      9 CAI          2.0030    -1.1430     1.0250 c6         1 0RO       0.206300
     10 CAK          0.7700    -1.9880     0.5720 c6         1 0RO       0.206300
     11 CAH          1.3070     0.6720    -0.5350 c6         1 0RO       0.206300
     12 CAJ          0.0880    -0.1950    -0.9800 c6         1 0RO       0.206300
     13 NAX         -0.3610    -1.1380     0.0870 nh         1 0RO      -0.776300
     14 C6          -1.6710    -1.6570     0.0260 ca         1 0RO       0.425900
     15 N1          -1.8120    -2.9860    -0.1750 nb         1 0RO      -0.280000
     16 C2          -3.0760    -3.4640    -0.2460 ca         1 0RO       0.165900
     17 N3          -4.2190    -2.7510    -0.1350 nb         1 0RO      -0.177000
     18 C4          -4.0530    -1.4330     0.0740 ca         1 0RO       0.154300
     19 SAQ         -5.3910    -0.2860     0.2730 ss         1 0RO      -0.112900
     20 C5          -2.8100    -0.8410     0.1660 ca         1 0RO      -0.213800
     21 CAE         -2.8780     0.5820     0.4340 cc         1 0RO      -0.152200
     22 CAS         -4.1890     1.0200     0.5120 cd         1 0RO      -0.069600
     23 CAG         -4.6510     2.4280     0.7850 c3         1 0RO      -0.014200
     24 CAF         -5.0600     3.1710    -0.5050 c3         1 0RO      -0.075400
     25 CAA         -5.5280     4.6170    -0.2500 c3         1 0RO      -0.090100
     26 H1           8.0140    -0.3060     0.2620 hc         1 0RO       0.047200
     27 H2           8.1610     1.4590     0.3210 hc         1 0RO       0.047200
     28 H3           7.3810     0.5900     1.6510 hc         1 0RO       0.047200
     29 H4           5.3880     0.7810    -2.2220 hc         1 0RO       0.047200
     30 H5           6.9630     1.5590    -2.0210 hc         1 0RO       0.047200
     31 H6           6.8370    -0.2070    -1.9980 hc         1 0RO       0.047200
     32 H7           5.4840     2.2100     1.3910 h1         1 0RO       0.067200
     33 H8           5.6280     2.9030    -0.2260 h1         1 0RO       0.067200
     34 H13          2.8110    -1.8500     1.2570 h1         1 0RO       0.062700
     35 H14          1.7540    -0.6320     1.9670 h1         1 0RO       0.062700
     36 H15          1.0920    -2.6720    -0.2270 h1         1 0RO       0.063950
     37 H16          0.4480    -2.6080     1.4210 h1         1 0RO       0.063950
     38 H17          0.9690     1.3990     0.2190 h1         1 0RO       0.062700
     39 H18          1.6380     1.2500    -1.4100 h1         1 0RO       0.062700
     40 H19         -0.7270     0.4770    -1.2820 h1         1 0RO       0.063950
     41 H20          0.3770    -0.7650    -1.8760 h1         1 0RO       0.063950
     42 H21         -3.1850    -4.5350    -0.4120 h5         1 0RO       0.048100
     43 H22         -2.0210     1.2340     0.5800 ha         1 0RO       0.203000
     44 H23         -5.5030     2.4100     1.4760 hc         1 0RO       0.053700
     45 H24         -3.8560     2.9900     1.2880 hc         1 0RO       0.053700
     46 H25         -4.2090     3.1870    -1.1970 hc         1 0RO       0.044200
     47 H26         -5.8650     2.6170    -1.0030 hc         1 0RO       0.044200
     48 H27         -4.7300     5.2070     0.2160 hc         1 0RO       0.034367
     49 H28         -5.8070     5.1000    -1.1940 hc         1 0RO       0.034367
     50 H29         -6.4020     4.6300     0.4130 hc         1 0RO       0.034367
@<TRIPOS>BOND
     1     1     2 1   
     2     1    26 1   
     3     1    27 1   
     4     1    28 1   
     5     2     3 1   
     6     2     4 1   
     7     2     5 1   
     8     3    29 1   
     9     3    30 1   
    10     3    31 1   
    11     4     7 1   
    12     5     6 1   
    13     5    32 1   
    14     5    33 1   
    15     6     7 2   
    16     7     8 1   
    17     8     9 1   
    18     8    11 1   
    19     9    10 1   
    20     9    34 1   
    21     9    35 1   
    22    10    13 1   
    23    10    36 1   
    24    10    37 1   
    25    11    12 1   
    26    11    38 1   
    27    11    39 1   
    28    12    13 1   
    29    12    40 1   
    30    12    41 1   
    31    13    14 1   
    32    14    15 ar  
    33    14    20 ar  
    34    15    16 ar  
    35    16    17 ar  
    36    16    42 1   
    37    17    18 ar  
    38    18    19 1   
    39    18    20 ar  
    40    19    22 1   
    41    20    21 1   
    42    21    22 2   
    43    21    43 1   
    44    22    23 1   
    45    23    24 1   
    46    23    44 1   
    47    23    45 1   
    48    24    25 1   
    49    24    46 1   
    50    24    47 1   
    51    25    48 1   
    52    25    49 1   
    53    25    50 1   
@<TRIPOS>SUBSTRUCTURE
     1 0RO         1 TEMP              0 ****  ****    0 ROOT
