@<TRIPOS>MOLECULE
0RO
   50    53     1     0     0
SMALL
bcc


@<TRIPOS>ATOM
      1 CAB          7.4200     0.6900     0.7030 c3         1 0RO      -0.078100
      2 CAY          6.1350     0.6500    -0.1040 c5         1 0RO       0.036100
      3 CAC          6.4100     0.3320    -1.5680 c3         1 0RO      -0.078100
      4 SAP          4.9780    -0.6090     0.5770 ss         1 0RO      -0.368300
      5 CAL          5.3080     1.9390     0.0460 c5         1 0RO       0.122800
      6 NAM          3.9040     1.6670    -0.1310 n2         1 0RO      -0.675900
      7 CAR          3.6150     0.4580     0.1440 c2         1 0RO       0.699100
      8 NAW          2.3640    -0.0630     0.0980 nh         1 0RO      -0.737600
      9 CAI          2.0290    -1.3230     0.7340 c6         1 0RO       0.206300
     10 CAK          0.8650    -2.0010     0.0300 c6         1 0RO       0.206300
     11 CAH          1.2430     0.8440    -0.0670 c6         1 0RO       0.206300
     12 CAJ          0.1070     0.1300    -0.7690 c6         1 0RO       0.206300
     13 NAX         -0.2560    -1.0830    -0.0540 nh         1 0RO      -0.776300
     14 C6          -1.5300    -1.5430     0.0250 ca         1 0RO       0.754200
     15 N1          -1.7140    -2.8610    -0.0090 nb         1 0RO      -0.806000
     16 C2          -2.9460    -3.3500     0.0250 ca         1 0RO       0.691900
     17 N3          -4.0730    -2.6700     0.0710 nb         1 0RO      -0.703000
     18 C4          -3.8920    -1.3550     0.1600 ca         1 0RO       0.482600
     19 SAQ         -5.2070    -0.2470     0.3490 ss         1 0RO      -0.112900
     20 C5          -2.6600    -0.6950     0.1780 ca         1 0RO      -0.344400
     21 CAE         -2.8180     0.7110     0.4150 cc         1 0RO      -0.102200
     22 CAS         -4.1120     1.0960     0.5190 cd         1 0RO      -0.069600
     23 CAG         -4.6420     2.4760     0.7180 c3         1 0RO      -0.014200
     24 CAF         -5.2560     3.0700    -0.5530 c3         1 0RO      -0.075400
     25 CAA         -5.7550     4.4900    -0.3320 c3         1 0RO      -0.090100
     26 H1           7.9840    -0.2400     0.6170 hc         1 0RO       0.047200
     27 H2           8.0580     1.4930     0.3290 hc         1 0RO       0.047200
     28 H3           7.2260     0.8770     1.7590 hc         1 0RO       0.047200
     29 H4           5.4970     0.3560    -2.1640 hc         1 0RO       0.047200
     30 H5           7.1010     1.0690    -1.9840 hc         1 0RO       0.047200
     31 H6           6.8630    -0.6530    -1.6820 hc         1 0RO       0.047200
     32 H7           5.4760     2.3700     1.0410 h1         1 0RO       0.067200
     33 H8           5.6540     2.6810    -0.6800 h1         1 0RO       0.067200
     34 H13          2.8800    -2.0020     0.6940 h1         1 0RO       0.062700
     35 H14          1.7740    -1.1680     1.7900 h1         1 0RO       0.062700
     36 H15          1.1710    -2.3290    -0.9700 h1         1 0RO       0.063950
     37 H16          0.5800    -2.8830     0.5960 h1         1 0RO       0.063950
     38 H17          0.9070     1.2260     0.9050 h1         1 0RO       0.062700
     39 H18          1.5590     1.6940    -0.6670 h1         1 0RO       0.062700
     40 H19         -0.7390     0.8000    -0.8700 h1         1 0RO       0.063950
     41 H20          0.4220    -0.1390    -1.7840 h1         1 0RO       0.063950
     42 H21         -3.0320    -4.4310    -0.0060 h5         1 0RO       0.048100
     43 H22         -2.0130     1.4200     0.5390 ha         1 0RO       0.153000
     44 H23         -5.3850     2.4850     1.5210 hc         1 0RO       0.053700
     45 H24         -3.8170     3.1100     1.0530 hc         1 0RO       0.053700
     46 H25         -4.5070     3.0560    -1.3480 hc         1 0RO       0.044200
     47 H26         -6.0810     2.4390    -0.8940 hc         1 0RO       0.044200
     48 H27         -4.9470     5.1450     0.0010 hc         1 0RO       0.034367
     49 H28         -6.1650     4.9110    -1.2490 hc         1 0RO       0.034367
     50 H29         -6.5390     4.5220     0.4270 hc         1 0RO       0.034367
@<TRIPOS>BOND
     1     1     2 1   
     2     1    26 1   
     3     1    27 1   
     4     1    28 1   
     5     2     3 1   
     6     2     4 1   
     7     2     5 1   
     8     3    29 1   
     9     3    30 1   
    10     3    31 1   
    11     4     7 1   
    12     5     6 1   
    13     5    32 1   
    14     5    33 1   
    15     6     7 2   
    16     7     8 1   
    17     8     9 1   
    18     8    11 1   
    19     9    10 1   
    20     9    34 1   
    21     9    35 1   
    22    10    13 1   
    23    10    36 1   
    24    10    37 1   
    25    11    12 1   
    26    11    38 1   
    27    11    39 1   
    28    12    13 1   
    29    12    40 1   
    30    12    41 1   
    31    13    14 1   
    32    14    15 ar  
    33    14    20 ar  
    34    15    16 ar  
    35    16    17 ar  
    36    16    42 1   
    37    17    18 ar  
    38    18    19 1   
    39    18    20 ar  
    40    19    22 1   
    41    20    21 1   
    42    21    22 2   
    43    21    43 1   
    44    22    23 1   
    45    23    24 1   
    46    23    44 1   
    47    23    45 1   
    48    24    25 1   
    49    24    46 1   
    50    24    47 1   
    51    25    48 1   
    52    25    49 1   
    53    25    50 1   
@<TRIPOS>SUBSTRUCTURE
     1 0RO         1 TEMP              0 ****  ****    0 ROOT
