@<TRIPOS>MOLECULE
0RP
   66    68     1     0     0
SMALL
No Charge or Current Charge


@<TRIPOS>ATOM
      1 C1          13.9120    -0.5180    38.6140 c3         1 0RP      -0.085100
      2 C2          12.4020    -0.2920    38.3980 c3         1 0RP      -0.087400
      3 C3          11.8880     1.1760    38.5630 c6         1 0RP       0.128700
      4 C4          10.3320     1.1690    38.4660 c6         1 0RP      -0.100400
      5 C5           9.7680     2.5250    37.9760 c6         1 0RP       0.173000
      6 C6          10.3790     2.7910    36.5910 ca         1 0RP      -0.129300
      7 C7           9.6280     3.3170    35.5160 ca         1 0RP      -0.039000
      8 C8          10.2270     3.5370    34.2590 ca         1 0RP      -0.202300
      9 C9          11.6000     3.2590    34.1000 ca         1 0RP      -0.045000
     10 C10         12.3490     2.7500    35.1720 ca         1 0RP      -0.109000
     11 C11         11.7390     2.4590    36.4090 ca         1 0RP       0.015000
     12 N1          12.5150     2.1230    37.5860 n          1 0RP      -0.242400
     13 C12         13.7120     2.7920    37.9650 c          1 0RP       0.650100
     14 O1          14.3070     2.5670    39.0110 o          1 0RP      -0.527000
     15 O2          14.0290     3.8340    37.1300 os         1 0RP      -0.455100
     16 C13         15.2300     4.5930    37.3720 c3         1 0RP       0.179600
     17 C14         16.4450     3.7570    36.9190 c3         1 0RP      -0.124100
     18 C15          9.4010     4.1130    33.1040 c3         1 0RP       0.346300
     19 F1           8.1340     3.6370    33.0980 f          1 0RP      -0.113333
     20 F2           9.9270     3.8220    31.8920 f          1 0RP      -0.113333
     21 F3           9.3160     5.4590    33.1850 f          1 0RP      -0.113333
     22 N2           8.2760     2.5910    38.0050 n          1 0RP      -0.412800
     23 C16          7.4970     1.4240    37.4970 c3         1 0RP       0.156300
     24 C17          7.2260     0.3490    38.5470 ca         1 0RP      -0.108300
     25 C18          7.5750    -0.9900    38.2880 ca         1 0RP      -0.028500
     26 C19          7.3550    -1.9920    39.2550 ca         1 0RP      -0.194300
     27 C20          6.7580    -1.6410    40.4850 ca         1 0RP      -0.013000
     28 C21          6.4040    -0.3030    40.7590 ca         1 0RP      -0.194300
     29 C22          6.6370     0.6840    39.7800 ca         1 0RP      -0.028500
     30 C23          5.7510     0.0680    42.0950 c3         1 0RP       0.346800
     31 F4           6.1660    -0.7260    43.1090 f          1 0RP      -0.108167
     32 F5           6.0250     1.3400    42.4670 f          1 0RP      -0.108167
     33 F6           4.4060    -0.0440    42.0300 f          1 0RP      -0.108167
     34 C24          7.7410    -3.4430    38.9550 c3         1 0RP       0.346800
     35 F7           6.7760    -4.0720    38.2470 f          1 0RP      -0.108167
     36 F8           8.8800    -3.5260    38.2300 f          1 0RP      -0.108167
     37 F9           7.9460    -4.1710    40.0770 f          1 0RP      -0.108167
     38 C25          7.6360     3.8040    38.3450 c          1 0RP       0.634100
     39 O3           8.2420     4.8100    38.6840 o          1 0RP      -0.521000
     40 O4           6.2720     3.7240    38.2770 os         1 0RP      -0.460100
     41 C26          5.5070     4.8950    38.6170 c3         1 0RP       0.167900
     42 H4          14.1500    -1.5860    38.5380 hc         1 0RP       0.040033
     43 H5          14.5020     0.0120    37.8570 hc         1 0RP       0.040033
     44 H3          14.2190    -0.1710    39.6080 hc         1 0RP       0.040033
     45 H6          12.1470    -0.6590    37.3960 hc         1 0RP       0.046200
     46 H7          11.8660    -0.9400    39.1030 hc         1 0RP       0.046200
     47 H1          12.1420     1.5100    39.5800 h1         1 0RP       0.091700
     48 H9           9.9040     0.9050    39.4420 hc         1 0RP       0.059700
     49 H8          10.0220     0.3840    37.7640 hc         1 0RP       0.059700
     50 H2          10.1620     3.2950    38.6570 h1         1 0RP       0.108700
     51 H10          8.5790     3.5660    35.6510 ha         1 0RP       0.132000
     52 H11         12.0990     3.4520    33.1520 ha         1 0RP       0.134000
     53 H12         13.4100     2.5610    35.0300 ha         1 0RP       0.135000
     54 H14         15.2070     5.5210    36.7860 h1         1 0RP       0.066700
     55 H13         15.3270     4.8720    38.4310 h1         1 0RP       0.066700
     56 H17         17.3640     4.3470    37.0150 hc         1 0RP       0.049700
     57 H16         16.5590     2.8540    37.5290 hc         1 0RP       0.049700
     58 H15         16.3380     3.4600    35.8690 hc         1 0RP       0.049700
     59 H19          6.5420     1.7470    37.0650 h1         1 0RP       0.072200
     60 H18          8.0540     0.9800    36.6620 h1         1 0RP       0.072200
     61 H20          8.0230    -1.2510    37.3310 ha         1 0RP       0.141000
     62 H21          6.5620    -2.4110    41.2300 ha         1 0RP       0.147000
     63 H22          6.3590     1.7170    39.9760 ha         1 0RP       0.141000
     64 H24          4.4330     4.6920    38.5190 h1         1 0RP       0.054367
     65 H25          5.7020     5.2030    39.6520 h1         1 0RP       0.054367
     66 H23          5.7560     5.7330    37.9520 h1         1 0RP       0.054367
@<TRIPOS>BOND
     1     1     2 1   
     2     1    42 1   
     3     1    43 1   
     4     1    44 1   
     5     2     3 1   
     6     2    45 1   
     7     2    46 1   
     8     3     4 1   
     9     3    12 1   
    10     3    47 1   
    11     4     5 1   
    12     4    48 1   
    13     4    49 1   
    14     5     6 1   
    15     5    22 1   
    16     5    50 1   
    17     6     7 ar  
    18     6    11 ar  
    19     7     8 ar  
    20     7    51 1   
    21     8     9 ar  
    22     8    18 1   
    23     9    10 ar  
    24     9    52 1   
    25    10    11 ar  
    26    10    53 1   
    27    11    12 1   
    28    12    13 1   
    29    13    14 2   
    30    13    15 1   
    31    15    16 1   
    32    16    17 1   
    33    16    54 1   
    34    16    55 1   
    35    17    56 1   
    36    17    57 1   
    37    17    58 1   
    38    18    19 1   
    39    18    20 1   
    40    18    21 1   
    41    22    23 1   
    42    22    38 1   
    43    23    24 1   
    44    23    59 1   
    45    23    60 1   
    46    24    25 ar  
    47    24    29 ar  
    48    25    26 ar  
    49    25    61 1   
    50    26    27 ar  
    51    26    34 1   
    52    27    28 ar  
    53    27    62 1   
    54    28    29 ar  
    55    28    30 1   
    56    29    63 1   
    57    30    31 1   
    58    30    32 1   
    59    30    33 1   
    60    34    35 1   
    61    34    36 1   
    62    34    37 1   
    63    38    39 2   
    64    38    40 1   
    65    40    41 1   
    66    41    64 1   
    67    41    65 1   
    68    41    66 1   
@<TRIPOS>SUBSTRUCTURE
     1 0RP         1 TEMP              0 ****  ****    0 ROOT
