@<TRIPOS>MOLECULE
0RP
   66    68     1     0     0
SMALL
abcg2


@<TRIPOS>ATOM
      1 C1          14.0240    -0.2910    38.2230 c3         1 0RP      -0.085100
      2 C2          12.5100    -0.1300    38.1610 c3         1 0RP      -0.087400
      3 C3          11.9940     1.2380    38.6150 c6         1 0RP       0.128700
      4 C4          10.4490     1.2570    38.6250 c6         1 0RP      -0.100400
      5 C5           9.8680     2.5280    37.9930 c6         1 0RP       0.173000
      6 C6          10.4760     2.7030    36.6210 ca         1 0RP      -0.129300
      7 C7           9.7540     2.9700    35.4700 ca         1 0RP      -0.039000
      8 C8          10.4120     3.1060    34.2510 ca         1 0RP      -0.202300
      9 C9          11.7930     2.9530    34.1730 ca         1 0RP      -0.045000
     10 C10         12.5220     2.6840    35.3220 ca         1 0RP      -0.109000
     11 C11         11.8670     2.5790    36.5440 ca         1 0RP       0.015000
     12 N1          12.5420     2.3170    37.7610 n          1 0RP      -0.242400
     13 C12         13.5700     3.0850    38.2350 c          1 0RP       0.650100
     14 O1          14.1530     2.8710    39.2840 o          1 0RP      -0.527000
     15 O2          13.8430     4.1190    37.4220 os         1 0RP      -0.455100
     16 C13         15.0030     4.9260    37.7420 c3         1 0RP       0.179600
     17 C14         16.2760     4.2830    37.2310 c3         1 0RP      -0.124100
     18 C15          9.6100     3.3540    33.0110 c3         1 0RP       0.346300
     19 F1           9.1820     2.1950    32.4400 f          1 0RP      -0.113333
     20 F2          10.3110     4.0060    32.0590 f          1 0RP      -0.113333
     21 F3           8.4990     4.0850    33.2510 f          1 0RP      -0.113333
     22 N2           8.4070     2.5210    37.9770 n          1 0RP      -0.412800
     23 C16          7.7040     1.3460    37.4780 c3         1 0RP       0.156300
     24 C17          7.2900     0.3430    38.5340 ca         1 0RP      -0.108300
     25 C18          7.0030    -0.9610    38.1380 ca         1 0RP      -0.028500
     26 C19          6.6020    -1.9080    39.0710 ca         1 0RP      -0.194300
     27 C20          6.4770    -1.5710    40.4130 ca         1 0RP      -0.013000
     28 C21          6.7650    -0.2700    40.8040 ca         1 0RP      -0.194300
     29 C22          7.1670     0.6830    39.8750 ca         1 0RP      -0.028500
     30 C23          6.6300     0.0840    42.2590 c3         1 0RP       0.346800
     31 F4           7.3920    -0.7120    43.0460 f          1 0RP      -0.108167
     32 F5           6.9880     1.3530    42.5240 f          1 0RP      -0.108167
     33 F6           5.3550    -0.0630    42.6960 f          1 0RP      -0.108167
     34 C24          6.2730    -3.3100    38.6420 c3         1 0RP       0.346800
     35 F7           4.9340    -3.5300    38.6230 f          1 0RP      -0.108167
     36 F8           6.7290    -3.5960    37.4070 f          1 0RP      -0.108167
     37 F9           6.7950    -4.2340    39.4790 f          1 0RP      -0.108167
     38 C25          7.7540     3.6750    38.2860 c          1 0RP       0.634100
     39 O3           8.2990     4.7240    38.5920 o          1 0RP      -0.521000
     40 O4           6.4180     3.5240    38.2270 os         1 0RP      -0.460100
     41 C26          5.6350     4.6960    38.5160 c3         1 0RP       0.167900
     42 H4          14.3150    -1.2900    37.8940 hc         1 0RP       0.040033
     43 H5          14.5260     0.4320    37.5770 hc         1 0RP       0.040033
     44 H3          14.3940    -0.1460    39.2390 hc         1 0RP       0.040033
     45 H6          12.1520    -0.3080    37.1420 hc         1 0RP       0.046200
     46 H7          12.0290    -0.8820    38.7930 hc         1 0RP       0.046200
     47 H1          12.3640     1.4510    39.6140 h1         1 0RP       0.091700
     48 H9          10.0930     1.1620    39.6500 hc         1 0RP       0.059700
     49 H8          10.0860     0.3900    38.0720 hc         1 0RP       0.059700
     50 H2          10.1610     3.3810    38.6050 h1         1 0RP       0.108700
     51 H10          8.6810     3.0890    35.5220 ha         1 0RP       0.132000
     52 H11         12.3010     3.0410    33.2230 ha         1 0RP       0.134000
     53 H12         13.5940     2.5670    35.2740 ha         1 0RP       0.135000
     54 H14         14.8080     5.8730    37.2420 h1         1 0RP       0.066700
     55 H13         15.0350     5.0890    38.8170 h1         1 0RP       0.066700
     56 H17         17.1200     4.9480    37.4250 hc         1 0RP       0.049700
     57 H16         16.4640     3.3330    37.7320 hc         1 0RP       0.049700
     58 H15         16.2150     4.1090    36.1560 hc         1 0RP       0.049700
     59 H19          6.8190     1.6720    36.9340 h1         1 0RP       0.072200
     60 H18          8.3450     0.8490    36.7510 h1         1 0RP       0.072200
     61 H20          7.1070    -1.2380    37.0970 ha         1 0RP       0.141000
     62 H21          6.1700    -2.3100    41.1410 ha         1 0RP       0.147000
     63 H22          7.3970     1.6860    40.2020 ha         1 0RP       0.141000
     64 H24          4.6000     4.3780    38.4250 h1         1 0RP       0.054367
     65 H25          5.8370     5.0490    39.5250 h1         1 0RP       0.054367
     66 H23          5.8540     5.4850    37.7970 h1         1 0RP       0.054367
@<TRIPOS>BOND
     1     1     2 1   
     2     1    42 1   
     3     1    43 1   
     4     1    44 1   
     5     2     3 1   
     6     2    45 1   
     7     2    46 1   
     8     3     4 1   
     9     3    12 1   
    10     3    47 1   
    11     4     5 1   
    12     4    48 1   
    13     4    49 1   
    14     5     6 1   
    15     5    22 1   
    16     5    50 1   
    17     6     7 ar  
    18     6    11 ar  
    19     7     8 ar  
    20     7    51 1   
    21     8     9 ar  
    22     8    18 1   
    23     9    10 ar  
    24     9    52 1   
    25    10    11 ar  
    26    10    53 1   
    27    11    12 1   
    28    12    13 1   
    29    13    14 2   
    30    13    15 1   
    31    15    16 1   
    32    16    17 1   
    33    16    54 1   
    34    16    55 1   
    35    17    56 1   
    36    17    57 1   
    37    17    58 1   
    38    18    19 1   
    39    18    20 1   
    40    18    21 1   
    41    22    23 1   
    42    22    38 1   
    43    23    24 1   
    44    23    59 1   
    45    23    60 1   
    46    24    25 ar  
    47    24    29 ar  
    48    25    26 ar  
    49    25    61 1   
    50    26    27 ar  
    51    26    34 1   
    52    27    28 ar  
    53    27    62 1   
    54    28    29 ar  
    55    28    30 1   
    56    29    63 1   
    57    30    31 1   
    58    30    32 1   
    59    30    33 1   
    60    34    35 1   
    61    34    36 1   
    62    34    37 1   
    63    38    39 2   
    64    38    40 1   
    65    40    41 1   
    66    41    64 1   
    67    41    65 1   
    68    41    66 1   
@<TRIPOS>SUBSTRUCTURE
     1 0RP         1 TEMP              0 ****  ****    0 ROOT
