@<TRIPOS>MOLECULE
0RR
   44    47     1     0     0
SMALL
No Charge or Current Charge


@<TRIPOS>ATOM
      1 OAA         -7.5590     0.8780    -0.7370 o          1 0RR      -0.729000
      2 CAS         -7.2480    -0.2060    -0.2680 c          1 0RR       0.730000
      3 OAD         -8.0170    -0.9240     0.3510 o          1 0RR      -0.729000
      4 CAO         -5.7910    -0.6510    -0.3950 c3         1 0RR      -0.234400
      5 CAP         -5.0040    -0.1170     0.8180 c3         1 0RR       0.114000
      6 NBE         -3.5720    -0.4950     0.7810 n          1 0RR      -0.278400
      7 CAX         -2.6310     0.3590     0.1800 c          1 0RR       0.558200
      8 OAB         -2.9390     1.3760    -0.4220 o          1 0RR      -0.467000
      9 CAZ         -3.0780    -1.6460     1.3630 cs         1 0RR       0.296000
     10 SAE         -3.9640    -2.8270     2.1560 s          1 0RR      -0.396400
     11 SAR         -1.3220    -1.7670     1.1340 ss         1 0RR       0.006800
     12 CBA         -1.2830    -0.2130     0.3380 cc         1 0RR      -0.045600
     13 CBB         -0.0340     0.2860    -0.0640 cd         1 0RR      -0.069400
     14 CAY          1.2240    -0.5360    -0.1780 c          1 0RR       0.542200
     15 OAC          1.3990    -1.7290     0.0260 o          1 0RR      -0.503000
     16 CBC          0.3520     1.6630    -0.4570 ca         1 0RR      -0.086800
     17 CAN         -0.3300     2.8950    -0.3500 ca         1 0RR      -0.018000
     18 CAT          0.3400     4.0800    -0.7120 ca         1 0RR       0.080000
     19 ClF         -0.4950     5.6240    -0.5900 cl         1 0RR      -0.200000
     20 CAL          1.6890     4.0490    -1.1180 ca         1 0RR      -0.068000
     21 CAM          2.3830     2.8270    -1.1610 ca         1 0RR      -0.151000
     22 CBD          1.6800     1.6450    -0.8710 ca         1 0RR       0.074600
     23 NBF          2.2000     0.3460    -0.6600 n          1 0RR      -0.299000
     24 CAQ          3.5210    -0.1120    -1.1480 c3         1 0RR       0.167300
     25 CAW          4.3530    -0.8720    -0.1080 ca         1 0RR      -0.090300
     26 CAU          4.6220    -2.2570    -0.2460 ca         1 0RR       0.150000
     27 ClG          4.0380    -3.1920    -1.6250 cl         1 0RR      -0.187000
     28 CAJ          5.3810    -2.9350     0.7230 ca         1 0RR      -0.108500
     29 CAI          5.8840    -2.2510     1.8400 ca         1 0RR      -0.086000
     30 CAK          5.6300    -0.8790     1.9830 ca         1 0RR      -0.108500
     31 CAV          4.8730    -0.1920     1.0200 ca         1 0RR       0.150000
     32 ClH          4.6070     1.5360     1.2600 cl         1 0RR      -0.187000
     33 H2          -5.7130    -1.7440    -0.3520 hc         1 0RR       0.034700
     34 H3          -5.3250    -0.2050    -1.2820 hc         1 0RR       0.034700
     35 H4          -5.0910     0.9780     0.8550 h1         1 0RR       0.081700
     36 H5          -5.4560    -0.4980     1.7430 h1         1 0RR       0.081700
     37 H6          -1.3270     2.9780     0.0570 ha         1 0RR       0.174000
     38 H7           2.2040     4.9770    -1.3570 ha         1 0RR       0.124000
     39 H8           3.4400     2.8130    -1.4110 ha         1 0RR       0.121000
     40 H9           3.3520    -0.7220    -2.0420 h1         1 0RR       0.069200
     41 H10          4.1060     0.7500    -1.4860 h1         1 0RR       0.069200
     42 H11          5.5790    -3.9980     0.6060 ha         1 0RR       0.132500
     43 H12          6.4710    -2.7800     2.5870 ha         1 0RR       0.121000
     44 H13          6.0230    -0.3430     2.8440 ha         1 0RR       0.132500
@<TRIPOS>BOND
     1     1     2 1   
     2     2     3 1   
     3     2     4 1   
     4     4     5 1   
     5     4    33 1   
     6     4    34 1   
     7     5     6 1   
     8     5    35 1   
     9     5    36 1   
    10     6     7 1   
    11     6     9 1   
    12     7     8 2   
    13     7    12 1   
    14     9    10 2   
    15     9    11 1   
    16    11    12 1   
    17    12    13 2   
    18    13    14 1   
    19    13    16 1   
    20    14    15 2   
    21    14    23 1   
    22    16    17 ar  
    23    16    22 ar  
    24    17    18 ar  
    25    17    37 1   
    26    18    19 1   
    27    18    20 ar  
    28    20    21 ar  
    29    20    38 1   
    30    21    22 ar  
    31    21    39 1   
    32    22    23 1   
    33    23    24 1   
    34    24    25 1   
    35    24    40 1   
    36    24    41 1   
    37    25    26 ar  
    38    25    31 ar  
    39    26    27 1   
    40    26    28 ar  
    41    28    29 ar  
    42    28    42 1   
    43    29    30 ar  
    44    29    43 1   
    45    30    31 ar  
    46    30    44 1   
    47    31    32 1   
@<TRIPOS>SUBSTRUCTURE
     1 0RR         1 TEMP              0 ****  ****    0 ROOT
