@<TRIPOS>MOLECULE
0RR
   44    47     1     0     0
SMALL
abcg2


@<TRIPOS>ATOM
      1 OAA         -7.8750    -0.1610    -0.8820 o          1 0RR      -0.729000
      2 CAS         -7.1130    -0.0890     0.1010 c          1 0RR       0.730000
      3 OAD         -7.4200     0.2300     1.2660 o          1 0RR      -0.729000
      4 CAO         -5.6370    -0.4400    -0.1680 c3         1 0RR      -0.234400
      5 CAP         -4.7570    -0.3200     1.0630 c3         1 0RR       0.114000
      6 NBE         -3.3630    -0.6590     0.7660 n          1 0RR      -0.278400
      7 CAX         -2.4620     0.3160     0.3800 c          1 0RR       0.558200
      8 OAB         -2.7500     1.4830     0.2880 o          1 0RR      -0.467000
      9 CAZ         -2.8980    -1.9300     0.7890 cs         1 0RR       0.296000
     10 SAE         -3.7290    -3.2820     1.1750 s          1 0RR      -0.396400
     11 SAR         -1.2110    -2.0130     0.3370 ss         1 0RR       0.006800
     12 CBA         -1.1320    -0.2820     0.1090 cc         1 0RR      -0.045600
     13 CBB         -0.0100     0.3670    -0.2620 cd         1 0RR      -0.069400
     14 CAY          1.2240    -0.4460    -0.4850 c          1 0RR       0.542200
     15 OAC          1.3120    -1.6530    -0.3870 o          1 0RR      -0.503000
     16 CBC          0.3750     1.7420    -0.5320 ca         1 0RR      -0.086800
     17 CAN         -0.2970     2.9570    -0.5200 ca         1 0RR      -0.018000
     18 CAT          0.4070     4.1040    -0.8520 ca         1 0RR       0.080000
     19 CLF         -0.4220     5.6280    -0.8400 cl         1 0RR      -0.200000
     20 CAL          1.7500     4.0680    -1.1940 ca         1 0RR      -0.068000
     21 CAM          2.4330     2.8580    -1.2080 ca         1 0RR      -0.151000
     22 CBD          1.7410     1.7130    -0.8750 ca         1 0RR       0.074600
     23 NBF          2.2220     0.4100    -0.8220 n          1 0RR      -0.299000
     24 CAQ          3.5570    -0.0410    -1.1660 c3         1 0RR       0.167300
     25 CAW          4.1990    -0.8310    -0.0560 ca         1 0RR      -0.090300
     26 CAU          4.4960    -2.1890    -0.1720 ca         1 0RR       0.150000
     27 CLG          4.1270    -3.0510    -1.6290 cl         1 0RR      -0.187000
     28 CAJ          5.0970    -2.9050     0.8520 ca         1 0RR      -0.108500
     29 CAI          5.4160    -2.2610     2.0350 ca         1 0RR      -0.086000
     30 CAK          5.1430    -0.9130     2.1920 ca         1 0RR      -0.108500
     31 CAV          4.5450    -0.2240     1.1510 ca         1 0RR       0.150000
     32 CLH          4.2240     1.4640     1.3720 cl         1 0RR      -0.187000
     33 H2          -5.5840    -1.4600    -0.5600 hc         1 0RR       0.034700
     34 H3          -5.2600     0.2080    -0.9650 hc         1 0RR       0.034700
     35 H4          -4.7640     0.6910     1.4630 h1         1 0RR       0.081700
     36 H5          -5.0870    -0.9890     1.8540 h1         1 0RR       0.081700
     37 H6          -1.3420     3.0150    -0.2650 ha         1 0RR       0.174000
     38 H7           2.2730     4.9790    -1.4500 ha         1 0RR       0.124000
     39 H8           3.4800     2.8400    -1.4730 ha         1 0RR       0.121000
     40 H9           3.5100    -0.6270    -2.0810 h1         1 0RR       0.069200
     41 H10          4.1640     0.8340    -1.3940 h1         1 0RR       0.069200
     42 H11          5.3120    -3.9560     0.7250 ha         1 0RR       0.132500
     43 H12          5.8830    -2.8130     2.8390 ha         1 0RR       0.121000
     44 H13          5.3960    -0.4020     3.1110 ha         1 0RR       0.132500
@<TRIPOS>BOND
     1     1     2 1   
     2     2     3 1   
     3     2     4 1   
     4     4     5 1   
     5     4    33 1   
     6     4    34 1   
     7     5     6 1   
     8     5    35 1   
     9     5    36 1   
    10     6     7 1   
    11     6     9 1   
    12     7     8 2   
    13     7    12 1   
    14     9    10 2   
    15     9    11 1   
    16    11    12 1   
    17    12    13 2   
    18    13    14 1   
    19    13    16 1   
    20    14    15 2   
    21    14    23 1   
    22    16    17 ar  
    23    16    22 ar  
    24    17    18 ar  
    25    17    37 1   
    26    18    19 1   
    27    18    20 ar  
    28    20    21 ar  
    29    20    38 1   
    30    21    22 ar  
    31    21    39 1   
    32    22    23 1   
    33    23    24 1   
    34    24    25 1   
    35    24    40 1   
    36    24    41 1   
    37    25    26 ar  
    38    25    31 ar  
    39    26    27 1   
    40    26    28 ar  
    41    28    29 ar  
    42    28    42 1   
    43    29    30 ar  
    44    29    43 1   
    45    30    31 ar  
    46    30    44 1   
    47    31    32 1   
@<TRIPOS>SUBSTRUCTURE
     1 0RR         1 TEMP              0 ****  ****    0 ROOT
