@<TRIPOS>MOLECULE
0RS
   63    68     1     0     0
SMALL
bcc


@<TRIPOS>ATOM
      1 C1          -9.7840    -2.2410    -0.7850 c3         1 0RS       0.148100
      2 C2          -8.5360    -3.7630     0.5270 c3         1 0RS       0.148100
      3 C3          -7.4580    -1.7770    -0.3330 c6         1 0RS       0.183500
      4 O1           1.9170     3.4560     0.3310 o          1 0RS      -0.516100
      5 C11         -2.0770     2.7370    -0.0620 ca         1 0RS      -0.232500
      6 C12         -0.0210     2.1730     0.3710 cc         1 0RS       0.331800
      7 C13         -1.9680     1.3590     0.1660 ca         1 0RS       0.563300
      8 C14          1.4260     2.3650     0.5370 c          1 0RS       0.536400
      9 C15          2.2800     1.2050     0.9170 ca         1 0RS      -0.119600
     10 C16          1.8710     0.2020     1.7860 ca         1 0RS      -0.177300
     11 C17          2.7780    -0.8010     2.0960 ca         1 0RS       0.393200
     12 C18          4.4080     0.1050     0.7790 cp         1 0RS       0.457800
     13 C19          3.5750     1.1570     0.4130 ca         1 0RS      -0.189300
     14 C20          5.7980     0.0490     0.2810 cp         1 0RS      -0.240800
     15 C21          6.5760     1.1780     0.3680 ca         1 0RS       0.401200
     16 C22          8.4070     0.1840    -0.5320 ca         1 0RS       0.434200
     17 C23          7.7270    -1.0440    -0.6940 ca         1 0RS      -0.168300
     18 C24          8.3660    -2.1640    -1.2710 ca         1 0RS      -0.104000
     19 C25          7.6780    -3.3310    -1.4460 ca         1 0RS      -0.127000
     20 C26          6.3260    -3.4130    -1.0540 ca         1 0RS      -0.115000
     21 C27          5.6860    -2.3450    -0.4840 ca         1 0RS      -0.106000
     22 C28          6.3750    -1.1260    -0.2800 ca         1 0RS       0.019000
     23 N1          -8.6970    -2.3650     0.1680 n3         1 0RS      -0.709600
     24 C4          -7.6280    -0.2960    -0.6650 c6         1 0RS      -0.084900
     25 C5          -6.3250     0.3260    -1.1400 c6         1 0RS       0.210300
     26 N2          -5.2570     0.1560    -0.1670 nh         1 0RS      -0.764300
     27 C6          -5.0370    -1.2340     0.1840 c6         1 0RS       0.210300
     28 C7          -6.3200    -1.8870     0.6790 c6         1 0RS      -0.084900
     29 C8          -4.1780     1.0080    -0.1680 ca         1 0RS       0.666200
     30 C9          -4.3740     2.4090    -0.4060 ca         1 0RS      -0.257300
     31 C10         -3.3260     3.2870    -0.3570 ca         1 0RS      -0.060000
     32 N3          -0.8200     3.2280     0.0770 na         1 0RS      -0.206300
     33 N4          -0.6760     1.0350     0.4300 nd         1 0RS      -0.612700
     34 N5          -2.9900     0.5030     0.1090 nb         1 0RS      -0.695000
     35 N6           4.0070    -0.8590     1.6070 nb         1 0RS      -0.645000
     36 N7           7.8610     1.2560    -0.0300 nb         1 0RS      -0.664000
     37 H1         -10.6660    -2.7530    -0.3990 h1         1 0RS       0.030700
     38 H2         -10.0660    -1.2020    -0.9440 h1         1 0RS       0.030700
     39 H3          -9.5470    -2.6800    -1.7680 h1         1 0RS       0.030700
     40 H4          -7.8500    -3.8860     1.3620 h1         1 0RS       0.030700
     41 H5          -9.4970    -4.1700     0.8420 h1         1 0RS       0.030700
     42 H6          -8.1690    -4.3840    -0.3050 h1         1 0RS       0.030700
     43 H7          -7.1420    -2.2970    -1.2600 h1         1 0RS       0.019700
     44 H8           0.8840     0.1890     2.2220 ha         1 0RS       0.168000
     45 H9           2.4910    -1.5960     2.7750 h4         1 0RS       0.027100
     46 H10          3.9270     1.9140    -0.2760 ha         1 0RS       0.159000
     47 H11          6.1640     2.0830     0.8010 h4         1 0RS       0.022100
     48 H12          9.4450     0.2550    -0.8460 h4         1 0RS       0.019100
     49 H13          9.4020    -2.0790    -1.5770 ha         1 0RS       0.134000
     50 H14          8.1600    -4.1910    -1.8900 ha         1 0RS       0.134000
     51 H15          5.7850    -4.3370    -1.2080 ha         1 0RS       0.133000
     52 H16          4.6510    -2.4410    -0.1930 ha         1 0RS       0.149000
     53 H18         -8.3580    -0.1430    -1.4600 hc         1 0RS       0.056450
     54 H19         -7.9920     0.2360     0.2190 hc         1 0RS       0.056450
     55 H20         -6.0310    -0.1320    -2.0960 h1         1 0RS       0.046950
     56 H21         -6.4980     1.3790    -1.3390 h1         1 0RS       0.046950
     57 H22         -4.6410    -1.7960    -0.6740 h1         1 0RS       0.046950
     58 H23         -4.2860    -1.2900     0.9680 h1         1 0RS       0.046950
     59 H24         -6.6310    -1.4210     1.6200 hc         1 0RS       0.056450
     60 H25         -6.0760    -2.9270     0.9000 hc         1 0RS       0.056450
     61 H26         -5.3630     2.7960    -0.5990 ha         1 0RS       0.145000
     62 H27         -3.4730     4.3450    -0.5240 ha         1 0RS       0.143000
     63 H28         -0.5230     4.1870    -0.0210 hn         1 0RS       0.326700
@<TRIPOS>BOND
     1     1    23 1   
     2     1    37 1   
     3     1    38 1   
     4     1    39 1   
     5     2    23 1   
     6     2    40 1   
     7     2    41 1   
     8     2    42 1   
     9     3    23 1   
    10     3    24 1   
    11     3    28 1   
    12     3    43 1   
    13     4     8 2   
    14     5     7 ar  
    15     5    31 ar  
    16     5    32 1   
    17     6     8 1   
    18     6    32 1   
    19     6    33 2   
    20     7    33 1   
    21     7    34 ar  
    22     8     9 1   
    23     9    10 ar  
    24     9    13 ar  
    25    10    11 ar  
    26    10    44 1   
    27    11    35 ar  
    28    11    45 1   
    29    12    13 ar  
    30    12    14 1   
    31    12    35 ar  
    32    13    46 1   
    33    14    15 ar  
    34    14    22 ar  
    35    15    36 ar  
    36    15    47 1   
    37    16    17 ar  
    38    16    36 ar  
    39    16    48 1   
    40    17    18 ar  
    41    17    22 ar  
    42    18    19 ar  
    43    18    49 1   
    44    19    20 ar  
    45    19    50 1   
    46    20    21 ar  
    47    20    51 1   
    48    21    22 ar  
    49    21    52 1   
    50    24    25 1   
    51    24    53 1   
    52    24    54 1   
    53    25    26 1   
    54    25    55 1   
    55    25    56 1   
    56    26    27 1   
    57    26    29 1   
    58    27    28 1   
    59    27    57 1   
    60    27    58 1   
    61    28    59 1   
    62    28    60 1   
    63    29    30 ar  
    64    29    34 ar  
    65    30    31 ar  
    66    30    61 1   
    67    31    62 1   
    68    32    63 1   
@<TRIPOS>SUBSTRUCTURE
     1 0RS         1 TEMP              0 ****  ****    0 ROOT
