@<TRIPOS>MOLECULE
0RS
   63    68     1     0     0
SMALL
No Charge or Current Charge


@<TRIPOS>ATOM
      1 C1         -10.0270    -2.2350    -0.9270 c3         1 0RS       0.148100
      2 C2          -9.0240    -3.5600     0.8580 c3         1 0RS       0.148100
      3 C3          -7.6430    -1.7960    -0.2750 c6         1 0RS       0.183500
      4 O1           2.0290     3.4370     0.2890 o          1 0RS      -0.516100
      5 C11         -2.1240     2.6370    -0.0750 ca         1 0RS      -0.167200
      6 C12          0.0140     2.1470     0.2960 cc         1 0RS       0.331800
      7 C13         -1.9970     1.2900     0.1190 ca         1 0RS       0.498000
      8 C14          1.5050     2.3350     0.4490 c          1 0RS       0.536400
      9 C15          2.3800     1.1470     0.8240 ca         1 0RS      -0.119600
     10 C16          1.9410     0.0590     1.6160 ca         1 0RS      -0.094000
     11 C17          2.8360    -0.9780     1.9280 ca         1 0RS       0.327900
     12 C18          4.5720     0.0340     0.7630 cp         1 0RS       0.392500
     13 C19          3.7340     1.1230     0.4200 ca         1 0RS      -0.106000
     14 C20          6.0100     0.0150     0.3750 cp         1 0RS      -0.175500
     15 C21          6.8100     1.1270     0.7230 ca         1 0RS       0.335900
     16 C22          8.7160     0.2040    -0.2020 ca         1 0RS       0.368900
     17 C23          8.0190    -0.9470    -0.6130 ca         1 0RS      -0.103000
     18 C24          8.6900    -1.9750    -1.3050 ca         1 0RS      -0.086000
     19 C25          7.9850    -3.1120    -1.7290 ca         1 0RS      -0.109000
     20 C26          6.6100    -3.2200    -1.4680 ca         1 0RS      -0.097000
     21 C27          5.9380    -2.1970    -0.7750 ca         1 0RS      -0.088000
     22 C28          6.6390    -1.0530    -0.3290 ca         1 0RS       0.019000
     23 N1          -9.0130    -2.2480     0.1600 n3         1 0RS      -0.709600
     24 C4          -7.6690    -0.3860    -0.9360 c6         1 0RS      -0.084900
     25 C5          -6.2570     0.0860    -1.3470 c6         1 0RS       0.210300
     26 N2          -5.3290     0.0780    -0.1890 nh         1 0RS      -0.764300
     27 C6          -5.2370    -1.2510     0.4740 c6         1 0RS       0.210300
     28 C7          -6.6320    -1.7570     0.9090 c6         1 0RS      -0.084900
     29 C8          -4.2510     0.9850    -0.1570 ca         1 0RS       0.600900
     30 C9          -4.4560     2.3710    -0.3600 ca         1 0RS      -0.174000
     31 C10         -3.3560     3.2450    -0.3220 ca         1 0RS      -0.042000
     32 N3          -0.8830     3.1860     0.0250 na         1 0RS      -0.256600
     33 N4          -0.6660     0.9710     0.3440 nd         1 0RS      -0.612700
     34 N5          -3.0350     0.4460     0.0840 nb         1 0RS      -0.695000
     35 N6           4.1220    -0.9950     1.5120 nb         1 0RS      -0.645000
     36 N7           8.1290     1.2310     0.4510 nb         1 0RS      -0.664000
     37 H1         -10.9870    -2.6310    -0.5690 h1         1 0RS       0.030700
     38 H2         -10.2210    -1.2170    -1.2860 h1         1 0RS       0.030700
     39 H3          -9.7000    -2.8510    -1.7750 h1         1 0RS       0.030700
     40 H4          -8.4800    -3.5150     1.8090 h1         1 0RS       0.030700
     41 H5         -10.0510    -3.8660     1.0950 h1         1 0RS       0.030700
     42 H6          -8.5720    -4.3410     0.2310 h1         1 0RS       0.030700
     43 H7          -7.2560    -2.5070    -1.0210 h1         1 0RS       0.019700
     44 H8           0.9380     0.0090     2.0250 ha         1 0RS       0.150000
     45 H9           2.5150    -1.8190     2.5420 h4         1 0RS       0.027100
     46 H10          4.1450     1.9360    -0.1730 ha         1 0RS       0.141000
     47 H11          6.3720     1.9690     1.2590 h4         1 0RS       0.022100
     48 H12          9.7810     0.3140    -0.4090 h4         1 0RS       0.019100
     49 H13          9.7540    -1.8910    -1.5180 ha         1 0RS       0.116000
     50 H14          8.5020    -3.9050    -2.2650 ha         1 0RS       0.116000
     51 H15          6.0610    -4.0970    -1.8040 ha         1 0RS       0.115000
     52 H16          4.8720    -2.3040    -0.6000 ha         1 0RS       0.131000
     53 H18         -8.2900    -0.3870    -1.8400 hc         1 0RS       0.056450
     54 H19         -8.1130     0.3430    -0.2450 hc         1 0RS       0.056450
     55 H20         -5.8710    -0.5750    -2.1370 h1         1 0RS       0.046950
     56 H21         -6.3390     1.0920    -1.7830 h1         1 0RS       0.046950
     57 H22         -4.7810    -1.9830    -0.2100 h1         1 0RS       0.046950
     58 H23         -4.6030    -1.1970     1.3710 h1         1 0RS       0.046950
     59 H24         -7.0200    -1.1120     1.7080 hc         1 0RS       0.056450
     60 H25         -6.4970    -2.7540     1.3440 hc         1 0RS       0.056450
     61 H26         -5.4550     2.7580    -0.5310 ha         1 0RS       0.127000
     62 H27         -3.4610     4.3180    -0.4700 ha         1 0RS       0.125000
     63 H28         -0.6320     4.1630    -0.0790 hn         1 0RS       0.377000
@<TRIPOS>BOND
     1     1    23 1   
     2     1    37 1   
     3     1    38 1   
     4     1    39 1   
     5     2    23 1   
     6     2    40 1   
     7     2    41 1   
     8     2    42 1   
     9     3    23 1   
    10     3    24 1   
    11     3    28 1   
    12     3    43 1   
    13     4     8 2   
    14     5     7 ar  
    15     5    31 ar  
    16     5    32 1   
    17     6     8 1   
    18     6    32 1   
    19     6    33 2   
    20     7    33 1   
    21     7    34 ar  
    22     8     9 1   
    23     9    10 ar  
    24     9    13 ar  
    25    10    11 ar  
    26    10    44 1   
    27    11    35 ar  
    28    11    45 1   
    29    12    13 ar  
    30    12    14 1   
    31    12    35 ar  
    32    13    46 1   
    33    14    15 ar  
    34    14    22 ar  
    35    15    36 ar  
    36    15    47 1   
    37    16    17 ar  
    38    16    36 ar  
    39    16    48 1   
    40    17    18 ar  
    41    17    22 ar  
    42    18    19 ar  
    43    18    49 1   
    44    19    20 ar  
    45    19    50 1   
    46    20    21 ar  
    47    20    51 1   
    48    21    22 ar  
    49    21    52 1   
    50    24    25 1   
    51    24    53 1   
    52    24    54 1   
    53    25    26 1   
    54    25    55 1   
    55    25    56 1   
    56    26    27 1   
    57    26    29 1   
    58    27    28 1   
    59    27    57 1   
    60    27    58 1   
    61    28    59 1   
    62    28    60 1   
    63    29    30 ar  
    64    29    34 ar  
    65    30    31 ar  
    66    30    61 1   
    67    31    62 1   
    68    32    63 1   
@<TRIPOS>SUBSTRUCTURE
     1 0RS         1 TEMP              0 ****  ****    0 ROOT
