@<TRIPOS>MOLECULE
0RT
   47    50     1     0     0
SMALL
abcg2


@<TRIPOS>ATOM
      1 FAC          5.6040     2.0380     1.1900 f          1 0RT      -0.113000
      2 CAZ          4.5740     2.6710     0.6070 c3         1 0RT       0.300000
      3 FAD          3.6160     2.7850     1.5340 f          1 0RT      -0.113000
      4 FAE          4.9910     3.9090     0.3140 f          1 0RT      -0.113000
      5 CAM          4.0900     1.9470    -0.6260 c3         1 0RT      -0.078200
      6 CAT          3.5530     0.5900    -0.3230 cc         1 0RT      -0.112600
      7 SAR          4.6100    -0.7130     0.1340 ss         1 0RT      -0.070900
      8 CAG          2.2540     0.2130    -0.3520 cd         1 0RT      -0.116200
      9 C5           2.0610    -1.1660    -0.0170 ca         1 0RT      -0.230800
     10 C4           3.2670    -1.7870     0.3150 ca         1 0RT       0.161300
     11 N3           3.4070    -3.0250     0.7800 nb         1 0RT      -0.181000
     12 C2           2.2580    -3.6490     0.9520 ca         1 0RT       0.176900
     13 N1           1.0470    -3.2020     0.6540 nb         1 0RT      -0.283000
     14 C6           0.9070    -1.9880     0.1220 ca         1 0RT       0.441900
     15 NAY         -0.3370    -1.5950    -0.2240 nh         1 0RT      -0.784300
     16 CAK         -1.5190    -2.2940     0.2410 c6         1 0RT       0.210300
     17 CAI         -2.5540    -1.2760     0.6960 c6         1 0RT       0.205800
     18 CAJ         -0.6450    -0.7050    -1.3270 c6         1 0RT       0.210300
     19 CAH         -1.6580     0.3420    -0.9050 c6         1 0RT       0.205800
     20 NAX         -2.8310    -0.3140    -0.3540 nh         1 0RT      -0.743600
     21 CAS         -4.0420     0.2660    -0.5250 c2         1 0RT       0.701100
     22 SAQ         -5.4840    -0.5240     0.1700 ss         1 0RT      -0.414200
     23 CBA         -6.4600     0.9870    -0.2120 c5         1 0RT       0.083000
     24 CAA         -7.8760     0.6200    -0.6210 c3         1 0RT      -0.078100
     25 CAB         -6.4570     1.9080     1.0010 c3         1 0RT      -0.078100
     26 CAL         -5.6520     1.5900    -1.3750 c5         1 0RT       0.122800
     27 NAN         -4.2460     1.3290    -1.1980 n2         1 0RT      -0.677900
     28 H1           3.3020     2.5460    -1.0860 hc         1 0RT       0.087700
     29 H2           4.9150     1.8980    -1.3410 hc         1 0RT       0.087700
     30 H3           1.4710     0.9200    -0.5810 ha         1 0RT       0.203000
     31 H4           2.3070    -4.6470     1.3740 h5         1 0RT       0.050100
     32 H5          -1.9340    -2.9140    -0.5610 h1         1 0RT       0.066200
     33 H6          -1.2670    -2.9440     1.0740 h1         1 0RT       0.066200
     34 H7          -3.4610    -1.8130     0.9680 h1         1 0RT       0.063950
     35 H8          -2.1910    -0.7670     1.5970 h1         1 0RT       0.063950
     36 H9           0.2460    -0.2320    -1.7240 h1         1 0RT       0.066200
     37 H10         -1.0700    -1.3030    -2.1410 h1         1 0RT       0.066200
     38 H11         -1.2120     1.0220    -0.1690 h1         1 0RT       0.063950
     39 H12         -1.9540     0.9300    -1.7700 h1         1 0RT       0.063950
     40 H15         -8.4340     0.1750     0.2030 hc         1 0RT       0.047367
     41 H16         -8.4100     1.5220    -0.9280 hc         1 0RT       0.047367
     42 H17         -7.8850    -0.0760    -1.4600 hc         1 0RT       0.047367
     43 H18         -5.4440     2.1940     1.2860 hc         1 0RT       0.047367
     44 H19         -7.0120     2.8210     0.7700 hc         1 0RT       0.047367
     45 H20         -6.9320     1.4340     1.8600 hc         1 0RT       0.047367
     46 H21         -5.9940     1.1570    -2.3240 h1         1 0RT       0.067200
     47 H22         -5.8400     2.6650    -1.4340 h1         1 0RT       0.067200
@<TRIPOS>BOND
     1     1     2 1   
     2     2     3 1   
     3     2     4 1   
     4     2     5 1   
     5     5     6 1   
     6     5    28 1   
     7     5    29 1   
     8     6     7 1   
     9     6     8 2   
    10     7    10 1   
    11     8     9 1   
    12     8    30 1   
    13     9    10 ar  
    14     9    14 ar  
    15    10    11 ar  
    16    11    12 ar  
    17    12    13 ar  
    18    12    31 1   
    19    13    14 ar  
    20    14    15 1   
    21    15    16 1   
    22    15    18 1   
    23    16    17 1   
    24    16    32 1   
    25    16    33 1   
    26    17    20 1   
    27    17    34 1   
    28    17    35 1   
    29    18    19 1   
    30    18    36 1   
    31    18    37 1   
    32    19    20 1   
    33    19    38 1   
    34    19    39 1   
    35    20    21 1   
    36    21    22 1   
    37    21    27 2   
    38    22    23 1   
    39    23    24 1   
    40    23    25 1   
    41    23    26 1   
    42    24    40 1   
    43    24    41 1   
    44    24    42 1   
    45    25    43 1   
    46    25    44 1   
    47    25    45 1   
    48    26    27 1   
    49    26    46 1   
    50    26    47 1   
@<TRIPOS>SUBSTRUCTURE
     1 0RT         1 TEMP              0 ****  ****    0 ROOT
