@<TRIPOS>MOLECULE
0RT
   47    50     1     0     0
SMALL
No Charge or Current Charge


@<TRIPOS>ATOM
      1 FAC          5.3560     2.2140     1.5590 f          1 0RT      -0.113000
      2 CAZ          4.4490     2.7950     0.7410 c3         1 0RT       0.300000
      3 FAD          3.2930     2.9390     1.4300 f          1 0RT      -0.113000
      4 FAE          4.9030     4.0300     0.4290 f          1 0RT      -0.113000
      5 CAM          4.2320     1.9570    -0.5370 c3         1 0RT      -0.078200
      6 CAT          3.7100     0.5660    -0.2770 cc         1 0RT      -0.112600
      7 SAR          4.8240    -0.7990     0.0370 ss         1 0RT      -0.070900
      8 CAG          2.3930     0.1540    -0.2430 cd         1 0RT      -0.116200
      9 C5           2.2090    -1.2530     0.0390 ca         1 0RT      -0.230800
     10 C4           3.4190    -1.8830     0.2280 ca         1 0RT       0.161300
     11 N3           3.5120    -3.1880     0.5370 nb         1 0RT      -0.181000
     12 C2           2.3320    -3.8390     0.6520 ca         1 0RT       0.176900
     13 N1           1.0940    -3.3140     0.4830 nb         1 0RT      -0.283000
     14 C6           1.0280    -2.0030     0.1630 ca         1 0RT       0.441900
     15 NAY         -0.2480    -1.4360    -0.0310 nh         1 0RT      -0.784300
     16 CAK         -1.4420    -1.9890     0.6810 c6         1 0RT       0.210300
     17 CAI         -2.6300    -0.9770     0.7330 c6         1 0RT       0.205800
     18 CAJ         -0.6120    -0.9370    -1.3920 c6         1 0RT       0.210300
     19 CAH         -1.7850     0.0910    -1.3550 c6         1 0RT       0.205800
     20 NAX         -2.9900    -0.3930    -0.6030 nh         1 0RT      -0.743600
     21 CAS         -4.1870     0.2820    -0.7350 c2         1 0RT       0.701100
     22 SAQ         -5.6240    -0.6110    -0.2210 ss         1 0RT      -0.414200
     23 CBA         -6.5150     0.9930    -0.2610 c5         1 0RT       0.083000
     24 CAA         -7.9980     0.7500    -0.6260 c3         1 0RT      -0.078100
     25 CAB         -6.4260     1.6410     1.1450 c3         1 0RT      -0.078100
     26 CAL         -5.7280     1.7960    -1.3540 c5         1 0RT       0.122800
     27 NAN         -4.2720     1.4470    -1.2640 n2         1 0RT      -0.677900
     28 H1           3.5370     2.4940    -1.1950 hc         1 0RT       0.087700
     29 H2           5.1810     1.8970    -1.0820 hc         1 0RT       0.087700
     30 H3           1.5650     0.8430    -0.3890 ha         1 0RT       0.203000
     31 H4           2.3820    -4.8970     0.9060 h5         1 0RT       0.050100
     32 H5          -1.7860    -2.9050     0.1780 h1         1 0RT       0.066200
     33 H6          -1.1800    -2.2630     1.7140 h1         1 0RT       0.066200
     34 H7          -3.4860    -1.5070     1.1730 h1         1 0RT       0.063950
     35 H8          -2.3730    -0.1650     1.4290 h1         1 0RT       0.063950
     36 H9           0.2510    -0.4660    -1.8830 h1         1 0RT       0.066200
     37 H10         -0.9140    -1.7840    -2.0260 h1         1 0RT       0.066200
     38 H11         -1.4210     1.0280    -0.9090 h1         1 0RT       0.063950
     39 H12         -2.0580     0.3190    -2.3960 h1         1 0RT       0.063950
     40 H15         -8.4950     0.1210     0.1220 hc         1 0RT       0.047367
     41 H16         -8.5500     1.6950    -0.6890 hc         1 0RT       0.047367
     42 H17         -8.0900     0.2460    -1.5950 hc         1 0RT       0.047367
     43 H18         -5.3850     1.7970     1.4520 hc         1 0RT       0.047367
     44 H19         -6.9240     2.6170     1.1620 hc         1 0RT       0.047367
     45 H20         -6.9020     1.0100     1.9050 hc         1 0RT       0.047367
     46 H21         -6.0960     1.5550    -2.3610 h1         1 0RT       0.067200
     47 H22         -5.8740     2.8770    -1.2130 h1         1 0RT       0.067200
@<TRIPOS>BOND
     1     1     2 1   
     2     2     3 1   
     3     2     4 1   
     4     2     5 1   
     5     5     6 1   
     6     5    28 1   
     7     5    29 1   
     8     6     7 1   
     9     6     8 2   
    10     7    10 1   
    11     8     9 1   
    12     8    30 1   
    13     9    10 ar  
    14     9    14 ar  
    15    10    11 ar  
    16    11    12 ar  
    17    12    13 ar  
    18    12    31 1   
    19    13    14 ar  
    20    14    15 1   
    21    15    16 1   
    22    15    18 1   
    23    16    17 1   
    24    16    32 1   
    25    16    33 1   
    26    17    20 1   
    27    17    34 1   
    28    17    35 1   
    29    18    19 1   
    30    18    36 1   
    31    18    37 1   
    32    19    20 1   
    33    19    38 1   
    34    19    39 1   
    35    20    21 1   
    36    21    22 1   
    37    21    27 2   
    38    22    23 1   
    39    23    24 1   
    40    23    25 1   
    41    23    26 1   
    42    24    40 1   
    43    24    41 1   
    44    24    42 1   
    45    25    43 1   
    46    25    44 1   
    47    25    45 1   
    48    26    27 1   
    49    26    46 1   
    50    26    47 1   
@<TRIPOS>SUBSTRUCTURE
     1 0RT         1 TEMP              0 ****  ****    0 ROOT
