@<TRIPOS>MOLECULE
0RU
   32    34     1     0     0
SMALL
bcc


@<TRIPOS>ATOM
      1 NAJ         -3.6610    -1.1910    -0.0510 nb         1 0RU      -0.709000
      2 CAE         -4.8750    -1.7330    -0.0540 ca         1 0RU       0.451700
      3 CAC         -6.0250    -0.9670    -0.0220 ca         1 0RU      -0.380600
      4 CAF         -5.8440     0.4080     0.0160 ca         1 0RU       0.451700
      5 NAK         -4.6420     0.9630     0.0210 nb         1 0RU      -0.709000
      6 CAQ         -3.6080     0.1280    -0.0130 ca         1 0RU       0.720300
      7 SAN         -2.0600     0.9560    -0.0050 ss         1 0RU      -0.112400
      8 CAI         -0.9370    -0.4590    -0.0550 c3         1 0RU      -0.095600
      9 CAP          0.4760     0.0350    -0.0320 cc         1 0RU       0.693200
     10 NAL          1.4210    -0.9170    -0.0060 na         1 0RU      -0.707600
     11 CAT          2.7600    -0.5940     0.0120 ca         1 0RU       0.174600
     12 CAO          3.7400    -1.5990     0.0380 ca         1 0RU      -0.134300
     13 CAA          3.3560    -3.0480     0.0490 c3         1 0RU      -0.047800
     14 CAG          5.0600    -1.1900     0.0540 ca         1 0RU      -0.070000
     15 CAD          5.4170     0.1610     0.0450 ca         1 0RU      -0.165000
     16 CAH          4.4410     1.1310     0.0210 ca         1 0RU      -0.038000
     17 CAS          3.0940     0.7610     0.0040 ca         1 0RU      -0.220600
     18 CAR          2.0190     1.7640    -0.0210 c          1 0RU       0.723100
     19 OAB          2.2480     2.9620    -0.0260 o          1 0RU      -0.527100
     20 NAM          0.7200     1.3040    -0.0400 nd         1 0RU      -0.710100
     21 H1          -4.9230    -2.8150    -0.0850 h4         1 0RU       0.025100
     22 H2          -7.0080    -1.4130    -0.0260 ha         1 0RU       0.154000
     23 H3          -6.6910     1.0830     0.0440 h4         1 0RU       0.025100
     24 H4          -1.1150    -1.1170     0.7960 h1         1 0RU       0.093700
     25 H5          -1.1060    -1.0480    -0.9590 h1         1 0RU       0.093700
     26 H6           1.1430    -1.8880    -0.0000 hn         1 0RU       0.454800
     27 H7           2.7870    -3.3250    -0.8420 hc         1 0RU       0.044033
     28 H8           4.2410    -3.6800     0.0780 hc         1 0RU       0.044033
     29 H9           2.7460    -3.3000     0.9190 hc         1 0RU       0.044033
     30 H10          5.8380    -1.9430     0.0740 ha         1 0RU       0.133000
     31 H11          6.4630     0.4370     0.0590 ha         1 0RU       0.141000
     32 H12          4.7040     2.1800     0.0150 ha         1 0RU       0.160000
@<TRIPOS>BOND
     1     1     2 ar  
     2     1     6 ar  
     3     2     3 ar  
     4     2    21 1   
     5     3     4 ar  
     6     3    22 1   
     7     4     5 ar  
     8     4    23 1   
     9     5     6 ar  
    10     6     7 1   
    11     7     8 1   
    12     8     9 1   
    13     8    24 1   
    14     8    25 1   
    15     9    10 1   
    16     9    20 2   
    17    10    11 1   
    18    10    26 1   
    19    11    12 ar  
    20    11    17 ar  
    21    12    13 1   
    22    12    14 ar  
    23    13    27 1   
    24    13    28 1   
    25    13    29 1   
    26    14    15 ar  
    27    14    30 1   
    28    15    16 ar  
    29    15    31 1   
    30    16    17 ar  
    31    16    32 1   
    32    17    18 1   
    33    18    19 2   
    34    18    20 1   
@<TRIPOS>SUBSTRUCTURE
     1 0RU         1 TEMP              0 ****  ****    0 ROOT
