@<TRIPOS>MOLECULE
0RU
   32    34     1     0     0
SMALL
No Charge or Current Charge


@<TRIPOS>ATOM
      1 NAJ         -3.8560    -0.6290    -0.7900 nb         1 0RU      -0.183000
      2 CAE         -5.1610    -0.8770    -1.0190 ca         1 0RU       0.123400
      3 CAC         -6.0730    -1.0250     0.0370 ca         1 0RU      -0.232000
      4 CAF         -5.5750    -0.9060     1.3450 ca         1 0RU       0.123400
      5 NAK         -4.2710    -0.6580     1.5790 nb         1 0RU      -0.183000
      6 CAQ         -3.4650    -0.5300     0.5010 ca         1 0RU       0.194300
      7 SAN         -1.7370    -0.2020     0.8390 ss         1 0RU      -0.160300
      8 CAI         -0.9530    -0.0650    -0.8380 c3         1 0RU      -0.047700
      9 CAP          0.5210     0.2120    -0.7650 cc         1 0RU       0.693200
     10 NAL          1.3770    -0.6810    -0.1450 na         1 0RU      -0.901200
     11 CAT          2.7430    -0.4670    -0.0510 ca         1 0RU       0.313000
     12 CAO          3.5630    -1.4140     0.6090 ca         1 0RU      -0.134300
     13 CAA          2.9790    -2.6820     1.2300 c3         1 0RU      -0.047800
     14 CAG          4.9510    -1.1830     0.6970 ca         1 0RU      -0.052000
     15 CAD          5.5140    -0.0270     0.1360 ca         1 0RU      -0.147000
     16 CAH          4.6950     0.9070    -0.5160 ca         1 0RU      -0.020000
     17 CAS          3.3080     0.6730    -0.6020 ca         1 0RU      -0.220600
     18 CAR          2.3950     1.6130    -1.2700 c          1 0RU       0.723100
     19 OAB          2.7770     2.6470    -1.7960 o          1 0RU      -0.527100
     20 NAM          1.0460     1.2930    -1.2950 nd         1 0RU      -0.710100
     21 H1          -5.4750    -0.9570    -2.0590 h4         1 0RU       0.025100
     22 H2          -7.1250    -1.2250    -0.1490 ha         1 0RU       0.136000
     23 H3          -6.2230    -1.0090     2.2130 h4         1 0RU       0.025100
     24 H4          -1.1060    -1.0000    -1.3880 h1         1 0RU       0.093700
     25 H5          -1.4400     0.7440    -1.3940 h1         1 0RU       0.093700
     26 H6           0.9730    -1.5120     0.2660 hn         1 0RU       0.510000
     27 H7           2.4840    -3.3020     0.4720 hc         1 0RU       0.044033
     28 H8           3.7530    -3.3000     1.7000 hc         1 0RU       0.044033
     29 H9           2.2420    -2.4400     2.0060 hc         1 0RU       0.044033
     30 H10          5.5960    -1.9010     1.2000 ha         1 0RU       0.115000
     31 H11          6.5860     0.1460     0.2060 ha         1 0RU       0.123000
     32 H12          5.1360     1.8030    -0.9500 ha         1 0RU       0.142000
@<TRIPOS>BOND
     1     1     2 ar  
     2     1     6 ar  
     3     2     3 ar  
     4     2    21 1   
     5     3     4 ar  
     6     3    22 1   
     7     4     5 ar  
     8     4    23 1   
     9     5     6 ar  
    10     6     7 1   
    11     7     8 1   
    12     8     9 1   
    13     8    24 1   
    14     8    25 1   
    15     9    10 1   
    16     9    20 2   
    17    10    11 1   
    18    10    26 1   
    19    11    12 ar  
    20    11    17 ar  
    21    12    13 1   
    22    12    14 ar  
    23    13    27 1   
    24    13    28 1   
    25    13    29 1   
    26    14    15 ar  
    27    14    30 1   
    28    15    16 ar  
    29    15    31 1   
    30    16    17 ar  
    31    16    32 1   
    32    17    18 1   
    33    18    19 2   
    34    18    20 1   
@<TRIPOS>SUBSTRUCTURE
     1 0RU         1 TEMP              0 ****  ****    0 ROOT
