@<TRIPOS>MOLECULE
0RW
   18    19     1     0     0
SMALL
abcg2


@<TRIPOS>ATOM
      1 C1           2.0930     1.2740     0.0170 ca         1 0RW      -0.134000
      2 C2           0.7540     1.5550     0.0190 ca         1 0RW      -0.054000
      3 C3          -0.1490     0.4710    -0.0020 ca         1 0RW      -0.147000
      4 C4           0.3240    -0.8720    -0.0240 ca         1 0RW      -0.063000
      5 C5           1.7150    -1.1370    -0.0260 ca         1 0RW      -0.084000
      6 C6           2.5670    -0.0680    -0.0060 ca         1 0RW      -0.099000
      7 C11         -1.5400     0.3520    -0.0030 cc         1 0RW      -0.094300
      8 N12         -1.7670    -0.9650    -0.0230 na         1 0RW       0.014500
      9 N13         -0.6880    -1.7410    -0.0360 nc         1 0RW      -0.284400
     10 C14         -2.6140     1.3770    -0.0110 c3         1 0RW      -0.031900
     11 H1           2.8140     2.0800     0.0340 ha         1 0RW       0.109000
     12 H2           0.4000     2.5780     0.0370 ha         1 0RW       0.111000
     13 H3           2.0850    -2.1540    -0.0430 ha         1 0RW       0.125000
     14 H4           3.6360    -0.2390    -0.0070 ha         1 0RW       0.109000
     15 H5          -2.6780    -1.4010    -0.0270 hn         1 0RW       0.366000
     16 H6          -2.8610     1.6880    -1.0280 hc         1 0RW       0.052367
     17 H7          -3.5270     1.0080     0.4550 hc         1 0RW       0.052367
     18 H8          -2.2950     2.2640     0.5340 hc         1 0RW       0.052367
@<TRIPOS>BOND
     1     1     2 ar  
     2     1     6 ar  
     3     1    11 1   
     4     2     3 ar  
     5     2    12 1   
     6     3     4 ar  
     7     3     7 2   
     8     4     5 ar  
     9     4     9 2   
    10     5     6 ar  
    11     5    13 1   
    12     6    14 1   
    13     7     8 1   
    14     7    10 1   
    15     8     9 1   
    16     8    15 1   
    17    10    16 1   
    18    10    17 1   
    19    10    18 1   
@<TRIPOS>SUBSTRUCTURE
     1 0RW         1 TEMP              0 ****  ****    0 ROOT
