@<TRIPOS>MOLECULE
0RW
   18    19     1     0     0
SMALL
No Charge or Current Charge


@<TRIPOS>ATOM
      1 C1           2.0990     1.2980    -0.0510 ca         1 0RW      -0.134000
      2 C2           0.7090     1.5300    -0.0380 ca         1 0RW      -0.054000
      3 C3          -0.1350     0.4120    -0.0090 ca         1 0RW      -0.147000
      4 C4           0.3310    -0.8810     0.0080 ca         1 0RW      -0.063000
      5 C5           1.7130    -1.1250    -0.0040 ca         1 0RW      -0.084000
      6 C6           2.5990    -0.0250    -0.0340 ca         1 0RW      -0.099000
      7 C11         -1.5510     0.3120     0.0100 cc         1 0RW      -0.094300
      8 N12         -1.8460    -1.0470     0.0380 na         1 0RW       0.014500
      9 N13         -0.6880    -1.8390     0.0380 nc         1 0RW      -0.284400
     10 C14         -2.5670     1.4220     0.0030 c3         1 0RW      -0.031900
     11 H1           2.7880     2.1390    -0.0740 ha         1 0RW       0.109000
     12 H2           0.3070     2.5410    -0.0510 ha         1 0RW       0.111000
     13 H3           2.0960    -2.1430     0.0090 ha         1 0RW       0.125000
     14 H4           3.6730    -0.1980    -0.0440 ha         1 0RW       0.109000
     15 H5          -2.7700    -1.4680     0.0560 hn         1 0RW       0.366000
     16 H6          -2.4600     2.0400    -0.8960 hc         1 0RW       0.052367
     17 H7          -3.5910     1.0300     0.0220 hc         1 0RW       0.052367
     18 H8          -2.4390     2.0720     0.8770 hc         1 0RW       0.052367
@<TRIPOS>BOND
     1     1     2 ar  
     2     1     6 ar  
     3     1    11 1   
     4     2     3 ar  
     5     2    12 1   
     6     3     4 ar  
     7     3     7 2   
     8     4     5 ar  
     9     4     9 2   
    10     5     6 ar  
    11     5    13 1   
    12     6    14 1   
    13     7     8 1   
    14     7    10 1   
    15     8     9 1   
    16     8    15 1   
    17    10    16 1   
    18    10    17 1   
    19    10    18 1   
@<TRIPOS>SUBSTRUCTURE
     1 0RW         1 TEMP              0 ****  ****    0 ROOT
