@<TRIPOS>MOLECULE
0RX
   48    51     1     0     0
SMALL
No Charge or Current Charge


@<TRIPOS>ATOM
      1 O1           0.5880    -0.9600     0.4220 o          1 0RX      -0.570100
      2 C1           0.7830     0.2110     0.1100 c          1 0RX       0.617700
      3 C13          2.1930     0.7470    -0.0900 ca         1 0RX      -0.079600
      4 C21          3.3130    -0.0980     0.0800 ca         1 0RX      -0.181000
      5 C16          4.6160     0.4030    -0.1080 ca         1 0RX       0.619900
      6 N4           5.7750    -0.3890     0.0560 nh         1 0RX      -0.770300
      7 C20          6.9550    -0.2320    -0.8680 c6         1 0RX       0.176800
      8 C19          8.2770    -0.7790    -0.2530 c6         1 0RX       0.142600
      9 O3           8.0980    -2.1240     0.2440 os         1 0RX      -0.442000
     10 C18          7.0900    -2.1980     1.2770 c6         1 0RX       0.142600
     11 C17          5.7080    -1.7240     0.7390 c6         1 0RX       0.176800
     12 N3           4.8570     1.6790    -0.4530 nb         1 0RX      -0.738000
     13 C15          3.8010     2.5000    -0.6190 ca         1 0RX       0.388900
     14 C14          2.4700     2.0860    -0.4500 ca         1 0RX      -0.213000
     15 N1          -0.2400     1.1310    -0.0910 ns         1 0RX      -0.140000
     16 C2          -1.6560     1.0340     0.0130 ca         1 0RX      -0.017000
     17 C12         -2.3290    -0.1060     0.5080 ca         1 0RX      -0.140500
     18 C11         -3.7340    -0.1250     0.5850 ca         1 0RX      -0.086500
     19 C5          -4.4810     0.9900     0.1610 ca         1 0RX       0.062100
     20 C4          -3.8180     2.1310    -0.3140 ca         1 0RX      -0.086500
     21 C3          -2.4140     2.1510    -0.3900 ca         1 0RX      -0.140500
     22 O2          -5.8550     0.9980     0.2400 os         1 0RX      -0.243200
     23 C6          -6.6300    -0.0940    -0.0790 ca         1 0RX       0.173100
     24 C10         -6.2850    -0.9680    -1.1210 ca         1 0RX      -0.220000
     25 C9          -7.1300    -2.0500    -1.4030 ca         1 0RX       0.361900
     26 N2          -8.2720    -2.2880    -0.7170 nb         1 0RX      -0.686000
     27 C8          -8.6030    -1.4340     0.2780 ca         1 0RX       0.361900
     28 C7          -7.8160    -0.3280     0.6240 ca         1 0RX      -0.220000
     29 H1           3.1650    -1.1390     0.3460 ha         1 0RX       0.143000
     30 H2           6.7600    -0.7650    -1.8100 h1         1 0RX       0.059200
     31 H3           7.1270     0.8220    -1.1270 h1         1 0RX       0.059200
     32 H4           9.0700    -0.7780    -1.0140 h1         1 0RX       0.056200
     33 H5           8.6000    -0.1280     0.5730 h1         1 0RX       0.056200
     34 H6           7.0160    -3.2340     1.6350 h1         1 0RX       0.056200
     35 H7           7.3960    -1.5680     2.1250 h1         1 0RX       0.056200
     36 H8           5.0170    -1.6830     1.5940 h1         1 0RX       0.059200
     37 H9           5.3220    -2.4830     0.0420 h1         1 0RX       0.059200
     38 H10          4.0280     3.5280    -0.8970 h4         1 0RX       0.020100
     39 H11          1.6830     2.8180    -0.6040 ha         1 0RX       0.126000
     40 H12          0.0840     2.0490    -0.3620 hn         1 0RX       0.159000
     41 H13         -1.7870    -0.9820     0.8490 ha         1 0RX       0.134000
     42 H14         -4.2380    -1.0050     0.9790 ha         1 0RX       0.132000
     43 H15         -4.3930     2.9990    -0.6280 ha         1 0RX       0.132000
     44 H16         -1.9150     3.0420    -0.7660 ha         1 0RX       0.134000
     45 H17         -5.3860    -0.8160    -1.7100 ha         1 0RX       0.136000
     46 H18         -6.8890    -2.7480    -2.2040 h4         1 0RX       0.018600
     47 H19         -9.5300    -1.6450     0.8110 h4         1 0RX       0.018600
     48 H20         -8.1240     0.3320     1.4290 ha         1 0RX       0.136000
@<TRIPOS>BOND
     1     1     2 2   
     2     2     3 1   
     3     2    15 1   
     4     3     4 ar  
     5     3    14 ar  
     6     4     5 ar  
     7     4    29 1   
     8     5     6 1   
     9     5    12 ar  
    10     6     7 1   
    11     6    11 1   
    12     7     8 1   
    13     7    30 1   
    14     7    31 1   
    15     8     9 1   
    16     8    32 1   
    17     8    33 1   
    18     9    10 1   
    19    10    11 1   
    20    10    34 1   
    21    10    35 1   
    22    11    36 1   
    23    11    37 1   
    24    12    13 ar  
    25    13    14 ar  
    26    13    38 1   
    27    14    39 1   
    28    15    16 1   
    29    15    40 1   
    30    16    17 ar  
    31    16    21 ar  
    32    17    18 ar  
    33    17    41 1   
    34    18    19 ar  
    35    18    42 1   
    36    19    20 ar  
    37    19    22 1   
    38    20    21 ar  
    39    20    43 1   
    40    21    44 1   
    41    22    23 1   
    42    23    24 ar  
    43    23    28 ar  
    44    24    25 ar  
    45    24    45 1   
    46    25    26 ar  
    47    25    46 1   
    48    26    27 ar  
    49    27    28 ar  
    50    27    47 1   
    51    28    48 1   
@<TRIPOS>SUBSTRUCTURE
     1 0RX         1 TEMP              0 ****  ****    0 ROOT
