@<TRIPOS>MOLECULE
0RX
   48    51     1     0     0
SMALL
bcc


@<TRIPOS>ATOM
      1 O1           0.6720    -0.3750     1.4530 o          1 0RX      -0.570100
      2 C1           0.8280     0.5450     0.6720 c          1 0RX       0.684700
      3 C13          2.2000     0.9950     0.2650 ca         1 0RX      -0.079600
      4 C21          3.2100     0.0540     0.2670 ca         1 0RX      -0.264300
      5 C16          4.5130     0.4480    -0.0990 ca         1 0RX       0.685200
      6 N4           5.5700    -0.4200    -0.0890 nh         1 0RX      -0.770300
      7 C20          6.7780    -0.0910    -0.8310 c6         1 0RX       0.176800
      8 C19          7.9730    -0.8090    -0.2360 c6         1 0RX       0.119400
      9 O3           7.7660    -2.2020    -0.1690 os         1 0RX      -0.395600
     10 C18          6.6440    -2.4860     0.6310 c6         1 0RX       0.119400
     11 C17          5.3750    -1.8460     0.0950 c6         1 0RX       0.176800
     12 N3           4.7690     1.7090    -0.4540 nb         1 0RX      -0.738000
     13 C15          3.7920     2.6000    -0.4330 ca         1 0RX       0.454200
     14 C14          2.4850     2.3150    -0.0840 ca         1 0RX      -0.296300
     15 N1          -0.1820     1.2340     0.0890 ns         1 0RX      -0.466100
     16 C2          -1.5610     1.0620     0.2510 ca         1 0RX       0.075600
     17 C12         -2.1440     0.3510     1.3010 ca         1 0RX      -0.158500
     18 C11         -3.5250     0.2550     1.3860 ca         1 0RX      -0.104500
     19 C5          -4.3280     0.8650     0.4380 ca         1 0RX       0.062100
     20 C4          -3.7620     1.5760    -0.6070 ca         1 0RX      -0.104500
     21 C3          -2.3850     1.6720    -0.6950 ca         1 0RX      -0.158500
     22 O2          -5.6980     0.7990     0.5570 os         1 0RX      -0.243200
     23 C6          -6.3610    -0.2180    -0.0290 ca         1 0RX       0.173100
     24 C10         -5.7580    -1.2200    -0.7800 ca         1 0RX      -0.303300
     25 C9          -6.5750    -2.2010    -1.3230 ca         1 0RX       0.427200
     26 N2          -7.8920    -2.2490    -1.1750 nb         1 0RX      -0.686000
     27 C8          -8.4490    -1.2800    -0.4520 ca         1 0RX       0.427200
     28 C7          -7.7430    -0.2500     0.1380 ca         1 0RX      -0.303300
     29 H1           2.9760    -0.9660     0.5310 ha         1 0RX       0.161000
     30 H2           6.6620    -0.3690    -1.8870 h1         1 0RX       0.059200
     31 H3           6.9520     0.9800    -0.7920 h1         1 0RX       0.059200
     32 H4           8.8490    -0.6340    -0.8610 h1         1 0RX       0.056200
     33 H5           8.1810    -0.4030     0.7640 h1         1 0RX       0.056200
     34 H6           6.5170    -3.5690     0.6540 h1         1 0RX       0.056200
     35 H7           6.8100    -2.1420     1.6610 h1         1 0RX       0.056200
     36 H8           4.5930    -2.0380     0.8270 h1         1 0RX       0.059200
     37 H9           5.0740    -2.3250    -0.8470 h1         1 0RX       0.059200
     38 H10          4.0660     3.6120    -0.7120 h4         1 0RX       0.020100
     39 H11          1.7460     3.1030    -0.0660 ha         1 0RX       0.144000
     40 H12          0.0760     1.8900    -0.6320 hn         1 0RX       0.325500
     41 H13         -1.5430    -0.1240     2.0590 ha         1 0RX       0.152000
     42 H14         -3.9720    -0.2920     2.2060 ha         1 0RX       0.150000
     43 H15         -4.3880     2.0570    -1.3490 ha         1 0RX       0.150000
     44 H16         -1.9460     2.2270    -1.5150 ha         1 0RX       0.152000
     45 H17         -4.6920    -1.2570    -0.9520 ha         1 0RX       0.154000
     46 H18         -6.1230    -2.9920    -1.9120 h4         1 0RX       0.018600
     47 H19         -9.5260    -1.3230    -0.3320 h4         1 0RX       0.018600
     48 H20         -8.2530     0.5110     0.7140 ha         1 0RX       0.154000
@<TRIPOS>BOND
     1     1     2 2   
     2     2     3 1   
     3     2    15 1   
     4     3     4 ar  
     5     3    14 ar  
     6     4     5 ar  
     7     4    29 1   
     8     5     6 1   
     9     5    12 ar  
    10     6     7 1   
    11     6    11 1   
    12     7     8 1   
    13     7    30 1   
    14     7    31 1   
    15     8     9 1   
    16     8    32 1   
    17     8    33 1   
    18     9    10 1   
    19    10    11 1   
    20    10    34 1   
    21    10    35 1   
    22    11    36 1   
    23    11    37 1   
    24    12    13 ar  
    25    13    14 ar  
    26    13    38 1   
    27    14    39 1   
    28    15    16 1   
    29    15    40 1   
    30    16    17 ar  
    31    16    21 ar  
    32    17    18 ar  
    33    17    41 1   
    34    18    19 ar  
    35    18    42 1   
    36    19    20 ar  
    37    19    22 1   
    38    20    21 ar  
    39    20    43 1   
    40    21    44 1   
    41    22    23 1   
    42    23    24 ar  
    43    23    28 ar  
    44    24    25 ar  
    45    24    45 1   
    46    25    26 ar  
    47    25    46 1   
    48    26    27 ar  
    49    27    28 ar  
    50    27    47 1   
    51    28    48 1   
@<TRIPOS>SUBSTRUCTURE
     1 0RX         1 TEMP              0 ****  ****    0 ROOT
