@<TRIPOS>MOLECULE
0RY
   26    26     1     0     0
SMALL
No Charge or Current Charge


@<TRIPOS>ATOM
      1 OAB          5.9940    -0.9480     0.4500 o          1 0RY      -0.707000
      2 CAM          4.7780    -0.8360     0.3820 c          1 0RY       0.717200
      3 OAE          4.0340    -1.8020     0.3860 o          1 0RY      -0.707000
      4 CAF          4.2350     0.5730     0.2900 ce         1 0RY      -0.129200
      5 CAG          2.9570     1.0930     0.2000 cf         1 0RY      -0.385200
      6 CAO          1.6190     0.4160     0.1600 c          1 0RY       0.616300
      7 OAD          1.4640    -0.7930     0.2050 o          1 0RY      -0.536100
      8 NAL          0.5670     1.3170     0.0650 ns         1 0RY      -0.160000
      9 CAP         -0.8440     1.1510    -0.0020 ca         1 0RY       0.010000
     10 CAK         -1.4940    -0.1050     0.0150 ca         1 0RY      -0.090000
     11 CAI         -1.6220     2.3180    -0.0920 ca         1 0RY      -0.178000
     12 CAH         -3.0210     2.2410    -0.1620 ca         1 0RY      -0.094000
     13 CAJ         -3.6610     0.9930    -0.1440 ca         1 0RY      -0.149000
     14 CAQ         -2.9040    -0.2000    -0.0550 ca         1 0RY      -0.125600
     15 CAN         -3.5630    -1.5660    -0.0330 c          1 0RY       0.611700
     16 OAC         -2.9280    -2.6060     0.0430 o          1 0RY      -0.587100
     17 NAA         -4.9120    -1.6260    -0.1010 nt         1 0RY      -0.612000
     18 H2           5.0370     1.3090     0.3000 ha         1 0RY       0.140000
     19 H3           2.9000     2.1800     0.1490 ha         1 0RY       0.134000
     20 H4           0.8600     2.2850     0.0380 hn         1 0RY       0.139000
     21 H5          -0.9180    -1.0230     0.0830 ha         1 0RY       0.181000
     22 H6          -1.1410     3.2930    -0.1070 ha         1 0RY       0.104000
     23 H7          -3.6110     3.1530    -0.2310 ha         1 0RY       0.099000
     24 H8          -4.7460     0.9690    -0.2000 ha         1 0RY       0.098000
     25 H9          -5.4520    -0.7770    -0.1650 hn         1 0RY       0.305000
     26 H10         -5.3670    -2.5270    -0.0880 hn         1 0RY       0.305000
@<TRIPOS>BOND
     1     1     2 1   
     2     2     3 1   
     3     2     4 1   
     4     4     5 2   
     5     4    18 1   
     6     5     6 1   
     7     5    19 1   
     8     6     7 2   
     9     6     8 1   
    10     8     9 1   
    11     8    20 1   
    12     9    10 ar  
    13     9    11 ar  
    14    10    14 ar  
    15    10    21 1   
    16    11    12 ar  
    17    11    22 1   
    18    12    13 ar  
    19    12    23 1   
    20    13    14 ar  
    21    13    24 1   
    22    14    15 1   
    23    15    16 2   
    24    15    17 1   
    25    17    25 1   
    26    17    26 1   
@<TRIPOS>SUBSTRUCTURE
     1 0RY         1 TEMP              0 ****  ****    0 ROOT
