@<TRIPOS>MOLECULE
0RY
   26    26     1     0     0
SMALL
abcg2


@<TRIPOS>ATOM
      1 OAB          4.4280    -1.5450    -0.7280 o          1 0RY      -0.707000
      2 CAM          4.2640    -0.9740     0.3620 c          1 0RY       0.717200
      3 OAE          4.3370    -1.4530     1.5060 o          1 0RY      -0.707000
      4 CAF          4.0610     0.5230     0.2920 ce         1 0RY      -0.129200
      5 CAG          2.9180     1.2100     0.2260 cf         1 0RY      -0.385200
      6 CAO          1.5930     0.5630     0.2080 c          1 0RY       0.616300
      7 OAD          1.4360    -0.6460     0.2540 o          1 0RY      -0.536100
      8 NAL          0.5620     1.4540     0.1340 ns         1 0RY      -0.160000
      9 CAP         -0.8110     1.2220     0.0800 ca         1 0RY       0.010000
     10 CAK         -1.3990    -0.0420     0.1170 ca         1 0RY      -0.090000
     11 CAI         -1.6350     2.3490    -0.0150 ca         1 0RY      -0.178000
     12 CAH         -3.0080     2.2140    -0.0780 ca         1 0RY      -0.094000
     13 CAJ         -3.5940     0.9560    -0.0600 ca         1 0RY      -0.149000
     14 CAQ         -2.7830    -0.1700     0.0300 ca         1 0RY      -0.125600
     15 CAN         -3.3490    -1.5570     0.0720 c          1 0RY       0.611700
     16 OAC         -2.7430    -2.4740     0.6090 o          1 0RY      -0.587100
     17 NAA         -4.5480    -1.7180    -0.5080 nt         1 0RY      -0.612000
     18 H2           4.9780     1.1070     0.2970 ha         1 0RY       0.140000
     19 H3           2.9530     2.2940     0.1820 ha         1 0RY       0.134000
     20 H4           0.8230     2.4280     0.1010 hn         1 0RY       0.139000
     21 H5          -0.7910    -0.9260     0.2000 ha         1 0RY       0.181000
     22 H6          -1.1920     3.3380    -0.0390 ha         1 0RY       0.104000
     23 H7          -3.6290     3.0980    -0.1400 ha         1 0RY       0.099000
     24 H8          -4.6730     0.8730    -0.0930 ha         1 0RY       0.098000
     25 H9          -4.9710    -1.0060    -1.0770 hn         1 0RY       0.305000
     26 H10         -4.9640    -2.6350    -0.5440 hn         1 0RY       0.305000
@<TRIPOS>BOND
     1     1     2 1   
     2     2     3 1   
     3     2     4 1   
     4     4     5 2   
     5     4    18 1   
     6     5     6 1   
     7     5    19 1   
     8     6     7 2   
     9     6     8 1   
    10     8     9 1   
    11     8    20 1   
    12     9    10 ar  
    13     9    11 ar  
    14    10    14 ar  
    15    10    21 1   
    16    11    12 ar  
    17    11    22 1   
    18    12    13 ar  
    19    12    23 1   
    20    13    14 ar  
    21    13    24 1   
    22    14    15 1   
    23    15    16 2   
    24    15    17 1   
    25    17    25 1   
    26    17    26 1   
@<TRIPOS>SUBSTRUCTURE
     1 0RY         1 TEMP              0 ****  ****    0 ROOT
