@<TRIPOS>MOLECULE
0RZ
   26    26     1     0     0
SMALL
No Charge or Current Charge


@<TRIPOS>ATOM
      1 OAB         -5.5150     1.2900     0.0570 o          1 0RZ      -0.713000
      2 CAM         -5.2740     0.0910     0.0270 c          1 0RZ       0.693200
      3 OAE         -6.1410    -0.7690     0.0110 o          1 0RZ      -0.713000
      4 CAF         -3.8440    -0.3600     0.0090 ce         1 0RZ      -0.154200
      5 CAG         -2.7320     0.4480     0.0220 cf         1 0RZ      -0.365200
      6 CAO         -1.3300    -0.0480     0.0030 c          1 0RZ       0.609300
      7 OAD         -1.0790    -1.2450    -0.0270 o          1 0RZ      -0.603100
      8 NAL         -0.3730     0.9570     0.0220 ns         1 0RZ      -0.152000
      9 CAP          1.0490     0.9300     0.0130 ca         1 0RZ       0.002000
     10 CAK          1.8130    -0.2590    -0.0190 ca         1 0RZ      -0.093000
     11 CAI          1.7170     2.1670     0.0400 ca         1 0RZ      -0.168000
     12 CAH          3.1180     2.2230     0.0330 ca         1 0RZ      -0.094000
     13 CAJ          3.8720     1.0410     0.0010 ca         1 0RZ      -0.143000
     14 CAQ          3.2280    -0.2200    -0.0260 ca         1 0RZ      -0.128600
     15 CAN          4.0120    -1.5190    -0.0610 c          1 0RZ       0.613700
     16 OAC          3.4760    -2.6150    -0.0850 o          1 0RZ      -0.595100
     17 NAA          5.3620    -1.4500    -0.0670 nt         1 0RZ      -0.609000
     18 H2          -3.7160    -1.4400    -0.0180 ha         1 0RZ       0.169000
     19 H3          -2.8670     1.5300     0.0480 ha         1 0RZ       0.190000
     20 H4          -0.7600     1.8910     0.0460 hn         1 0RZ       0.154000
     21 H5           1.3230    -1.2280    -0.0400 ha         1 0RZ       0.174000
     22 H6           1.1460     3.0930     0.0650 ha         1 0RZ       0.111000
     23 H7           3.6220     3.1870     0.0540 ha         1 0RZ       0.103000
     24 H8           4.9560     1.1200    -0.0030 ha         1 0RZ       0.101000
     25 H9           5.8220    -0.5540    -0.0480 hn         1 0RZ       0.306000
     26 H10          5.8980    -2.3050    -0.0900 hn         1 0RZ       0.306000
@<TRIPOS>BOND
     1     1     2 1   
     2     2     3 1   
     3     2     4 1   
     4     4     5 2   
     5     4    18 1   
     6     5     6 1   
     7     5    19 1   
     8     6     7 2   
     9     6     8 1   
    10     8     9 1   
    11     8    20 1   
    12     9    10 ar  
    13     9    11 ar  
    14    10    14 ar  
    15    10    21 1   
    16    11    12 ar  
    17    11    22 1   
    18    12    13 ar  
    19    12    23 1   
    20    13    14 ar  
    21    13    24 1   
    22    14    15 1   
    23    15    16 2   
    24    15    17 1   
    25    17    25 1   
    26    17    26 1   
@<TRIPOS>SUBSTRUCTURE
     1 0RZ         1 TEMP              0 ****  ****    0 ROOT
