@<TRIPOS>MOLECULE
0RZ
   26    26     1     0     0
SMALL
abcg2


@<TRIPOS>ATOM
      1 OAB         -5.3500     1.2870    -0.0980 o          1 0RZ      -0.713000
      2 CAM         -5.1350     0.0610    -0.0890 c          1 0RZ       0.693200
      3 OAE         -5.9780    -0.8570    -0.1080 o          1 0RZ      -0.713000
      4 CAF         -3.6890    -0.3950    -0.0500 ce         1 0RZ      -0.154200
      5 CAG         -2.6590     0.4470    -0.0150 cf         1 0RZ      -0.365200
      6 CAO         -1.2570    -0.0300     0.0270 c          1 0RZ       0.609300
      7 OAD         -0.9490    -1.2110     0.0270 o          1 0RZ      -0.603100
      8 NAL         -0.3540     0.9880     0.0660 ns         1 0RZ      -0.152000
      9 CAP          1.0400     0.9400     0.0940 ca         1 0RZ       0.002000
     10 CAK          1.7850    -0.2370     0.1170 ca         1 0RZ      -0.093000
     11 CAI          1.7090     2.1680     0.1010 ca         1 0RZ      -0.168000
     12 CAH          3.0900     2.2160     0.1250 ca         1 0RZ      -0.094000
     13 CAJ          3.8350     1.0450     0.1270 ca         1 0RZ      -0.143000
     14 CAQ          3.1770    -0.1800     0.1170 ca         1 0RZ      -0.128600
     15 CAN          3.9170    -1.4820     0.1380 c          1 0RZ       0.613700
     16 OAC          3.4120    -2.4910     0.6100 o          1 0RZ      -0.595100
     17 NAA          5.1530    -1.4620    -0.3850 nt         1 0RZ      -0.609000
     18 H2          -3.5070    -1.4660    -0.0480 ha         1 0RZ       0.169000
     19 H3          -2.8380     1.5170    -0.0170 ha         1 0RZ       0.190000
     20 H4          -0.7410     1.9190     0.0590 hn         1 0RZ       0.154000
     21 H5           1.2960    -1.1960     0.1230 ha         1 0RZ       0.174000
     22 H6           1.1400     3.0900     0.0910 ha         1 0RZ       0.111000
     23 H7           3.5900     3.1750     0.1440 ha         1 0RZ       0.103000
     24 H8           4.9150     1.1050     0.1630 ha         1 0RZ       0.101000
     25 H9           5.4990    -0.6790    -0.9120 hn         1 0RZ       0.306000
     26 H10          5.6830    -2.3160    -0.4400 hn         1 0RZ       0.306000
@<TRIPOS>BOND
     1     1     2 1   
     2     2     3 1   
     3     2     4 1   
     4     4     5 2   
     5     4    18 1   
     6     5     6 1   
     7     5    19 1   
     8     6     7 2   
     9     6     8 1   
    10     8     9 1   
    11     8    20 1   
    12     9    10 ar  
    13     9    11 ar  
    14    10    14 ar  
    15    10    21 1   
    16    11    12 ar  
    17    11    22 1   
    18    12    13 ar  
    19    12    23 1   
    20    13    14 ar  
    21    13    24 1   
    22    14    15 1   
    23    15    16 2   
    24    15    17 1   
    25    17    25 1   
    26    17    26 1   
@<TRIPOS>SUBSTRUCTURE
     1 0RZ         1 TEMP              0 ****  ****    0 ROOT
