@<TRIPOS>MOLECULE
0S0
   30    31     1     0     0
SMALL
bcc


@<TRIPOS>ATOM
      1 O01          3.4960    -2.2830     0.0690 o          1 0S0      -0.584500
      2 C02          3.8580    -1.1190     0.0370 c          1 0S0       0.738700
      3 N03          5.2250    -0.8290     0.0400 ns         1 0S0      -0.442100
      4 C04          5.7700     0.3950     0.0080 cc         1 0S0       0.319700
      5 O05          7.0830     0.4010     0.0190 oh         1 0S0      -0.488100
      6 C06          4.9610     1.5170    -0.0310 cd         1 0S0      -0.369000
      7 C07          3.5910     1.3170    -0.0350 cd         1 0S0       0.050000
      8 C08          3.0180     0.0550    -0.0020 cc         1 0S0      -0.119600
      9 N09          1.6640    -0.2030    -0.0050 ne         1 0S0      -0.137600
     10 N10          0.9080     0.7870    -0.0110 nf         1 0S0      -0.258400
     11 C11         -0.4600     0.4760    -0.0250 ca         1 0S0       0.153400
     12 C12         -0.9860    -0.8140    -0.1280 ca         1 0S0      -0.128000
     13 C13         -2.3550    -1.0050    -0.1360 ca         1 0S0      -0.033500
     14 C14         -3.2000     0.0940    -0.0370 ca         1 0S0      -0.267500
     15 S15         -4.9530    -0.1330    -0.0430 sy         1 0S0       1.267200
     16 O16         -5.2290    -1.4880    -0.5030 o          1 0S0      -0.615800
     17 N17         -5.3040     0.0870     1.5570 n8         1 0S0      -0.892700
     18 O18         -5.5860     0.9760    -0.7420 o          1 0S0      -0.615800
     19 C19         -2.6940     1.3840     0.0620 ca         1 0S0      -0.033500
     20 C20         -1.3240     1.5680     0.0630 ca         1 0S0      -0.128000
     21 H1           5.8480    -1.6290     0.0710 hn         1 0S0       0.342500
     22 H2           5.3940     2.5060    -0.0600 ha         1 0S0       0.156000
     23 H3           2.9390     2.1800    -0.0670 ha         1 0S0       0.161000
     24 H5          -0.3240    -1.6650    -0.2050 ha         1 0S0       0.155500
     25 H6          -2.7550    -2.0060    -0.2220 ha         1 0S0       0.155500
     26 H7          -6.2900     0.2880     1.6960 hn         1 0S0       0.417300
     27 H8          -5.0200    -0.6980     2.1340 hn         1 0S0       0.417300
     28 H9          -3.3530     2.2380     0.1350 ha         1 0S0       0.155500
     29 H10         -0.9080     2.5640     0.1330 ha         1 0S0       0.155500
     30 H11          7.4300     1.3030     0.0010 ho         1 0S0       0.471000
@<TRIPOS>BOND
     1     1     2 2   
     2     2     3 1   
     3     2     8 1   
     4     3     4 1   
     5     3    21 1   
     6     4     5 1   
     7     4     6 2   
     8     5    30 1   
     9     6     7 1   
    10     6    22 1   
    11     7     8 2   
    12     7    23 1   
    13     8     9 1   
    14     9    10 2   
    15    10    11 1   
    16    11    12 ar  
    17    11    20 ar  
    18    12    13 ar  
    19    12    24 1   
    20    13    14 ar  
    21    13    25 1   
    22    14    15 1   
    23    14    19 ar  
    24    15    16 2   
    25    15    17 1   
    26    15    18 2   
    27    17    26 1   
    28    17    27 1   
    29    19    20 ar  
    30    19    28 1   
    31    20    29 1   
@<TRIPOS>SUBSTRUCTURE
     1 0S0         1 TEMP              0 ****  ****    0 ROOT
