@<TRIPOS>MOLECULE
0S0
   30    31     1     0     0
SMALL
No Charge or Current Charge


@<TRIPOS>ATOM
      1 O01          3.4660    -1.7630     1.5240 o          1 0S0      -0.509000
      2 C02          3.8990    -0.8090     0.8900 c          1 0S0       0.596200
      3 N03          5.2430    -0.6440     0.7220 ns         1 0S0      -0.375100
      4 C04          5.8240     0.3770     0.0430 cc         1 0S0       0.319700
      5 O05          7.1560     0.3250     0.0160 oh         1 0S0      -0.527100
      6 C06          5.0780     1.3590    -0.5440 cd         1 0S0      -0.419000
      7 C07          3.6400     1.2950    -0.4380 cd         1 0S0       0.000000
      8 C08          3.0460     0.2380     0.2520 cc         1 0S0      -0.119600
      9 N09          1.6630     0.1170     0.4050 ne         1 0S0      -0.137600
     10 N10          0.9470     0.5660    -0.5400 nf         1 0S0      -0.258400
     11 C11         -0.4520     0.4350    -0.3700 ca         1 0S0       0.153400
     12 C12         -1.1140    -0.7170    -0.8290 ca         1 0S0      -0.110000
     13 C13         -2.5040    -0.8480    -0.6680 ca         1 0S0      -0.015500
     14 C14         -3.2420     0.1820    -0.0460 ca         1 0S0      -0.267500
     15 S15         -5.0190     0.0190     0.1640 sy         1 0S0       1.125600
     16 O16         -5.5680    -0.9690    -0.7630 o          1 0S0      -0.545000
     17 N17         -5.1540    -0.7050     1.6190 n8         1 0S0      -1.003100
     18 O18         -5.6440     1.3240     0.3720 o          1 0S0      -0.545000
     19 C19         -2.5770     1.3380     0.4150 ca         1 0S0      -0.015500
     20 C20         -1.1860     1.4610     0.2500 ca         1 0S0      -0.110000
     21 H1           5.8320    -1.3450     1.1450 hn         1 0S0       0.342500
     22 H2           5.5500     2.1770    -1.0810 ha         1 0S0       0.206000
     23 H3           3.0290     2.0740    -0.8930 ha         1 0S0       0.211000
     24 H5          -0.5480    -1.5110    -1.3100 ha         1 0S0       0.137500
     25 H6          -3.0020    -1.7480    -1.0260 ha         1 0S0       0.137500
     26 H7          -5.8040    -0.0720     2.0790 hn         1 0S0       0.472500
     27 H8          -5.7560    -1.4900     1.3770 hn         1 0S0       0.472500
     28 H9          -3.1310     2.1400     0.9000 ha         1 0S0       0.137500
     29 H10         -0.6760     2.3530     0.6040 ha         1 0S0       0.137500
     30 H11          7.4460     1.1080    -0.4960 ho         1 0S0       0.510000
@<TRIPOS>BOND
     1     1     2 2   
     2     2     3 1   
     3     2     8 1   
     4     3     4 1   
     5     3    21 1   
     6     4     5 1   
     7     4     6 2   
     8     5    30 1   
     9     6     7 1   
    10     6    22 1   
    11     7     8 2   
    12     7    23 1   
    13     8     9 1   
    14     9    10 2   
    15    10    11 1   
    16    11    12 ar  
    17    11    20 ar  
    18    12    13 ar  
    19    12    24 1   
    20    13    14 ar  
    21    13    25 1   
    22    14    15 1   
    23    14    19 ar  
    24    15    16 2   
    25    15    17 1   
    26    15    18 2   
    27    17    26 1   
    28    17    27 1   
    29    19    20 ar  
    30    19    28 1   
    31    20    29 1   
@<TRIPOS>SUBSTRUCTURE
     1 0S0         1 TEMP              0 ****  ****    0 ROOT
