@<TRIPOS>MOLECULE
0S1
   38    39     1     0     0
SMALL
abcg2


@<TRIPOS>ATOM
      1 C1           2.1960    -3.8750     1.6130 cy         1 0S1       0.155300
      2 O1           2.2130    -4.4820     2.9000 oh         1 0S1      -0.658000
      3 C2           1.8470    -1.7430     1.8910 cy         1 0S1      -0.097700
      4 C3           0.9660    -2.9570     1.4890 cy         1 0S1      -0.078400
      5 C4           3.0830    -2.6030     1.5290 cy         1 0S1       0.154500
      6 H            2.3550    -4.6240     0.8350 h1         1 0S1       0.056700
      7 HO           2.9690    -5.0810     2.9470 ho         1 0S1       0.448000
      8 C5           1.6610    -0.4130     1.1740 c3         1 0S1      -0.036200
      9 HG           1.8100    -1.5950     2.9720 hc         1 0S1       0.072700
     10 HGA          0.6200    -2.8880     0.4570 hc         1 0S1       0.066200
     11 N1           4.2630    -2.6210     2.3820 n7         1 0S1      -0.867300
     12 HB1          3.3980    -2.4270     0.5010 h1         1 0S1       0.096700
     13 S1           5.2860    -1.3320     2.3290 sy         1 0S1       1.164600
     14 C6           6.7430    -1.9950     3.0720 ca         1 0S1      -0.292500
     15 O2           4.8250    -0.2290     3.1490 o          1 0S1      -0.552500
     16 O3           5.5240    -1.0590     0.9260 o          1 0S1      -0.552500
     17 C7           7.4650    -2.9790     2.3980 ca         1 0S1      -0.003500
     18 C8           8.6180    -3.4840     2.9750 ca         1 0S1      -0.135500
     19 C9           9.0680    -3.0230     4.2180 ca         1 0S1      -0.017300
     20 C10          8.3240    -2.0410     4.8730 ca         1 0S1      -0.135500
     21 C11          7.1650    -1.5220     4.3090 ca         1 0S1      -0.003500
     22 C12         10.3350    -3.5580     4.8200 c3         1 0S1      -0.057800
     23 HB2          4.0420    -2.8660     3.3440 hn         1 0S1       0.476000
     24 H7           7.1260    -3.3440     1.4380 ha         1 0S1       0.136000
     25 H8           9.1800    -4.2510     2.4560 ha         1 0S1       0.118500
     26 H9           8.6520    -1.6770     5.8390 ha         1 0S1       0.118500
     27 H10          6.5930    -0.7620     4.8220 ha         1 0S1       0.136000
     28 H11         11.1950    -2.9770     4.4720 hc         1 0S1       0.050033
     29 H12         10.3130    -3.4930     5.9080 hc         1 0S1       0.050033
     30 H13         10.5020    -4.5960     4.5300 hc         1 0S1       0.050033
     31 C13          0.3470     0.2300     1.4990 c2         1 0S1      -0.219200
     32 C14          0.2030     1.3970     2.1180 c2         1 0S1      -0.311000
     33 H14          0.1300    -3.2090     2.1390 hc         1 0S1       0.066200
     34 H15          2.4800     0.2620     1.4370 hc         1 0S1       0.055700
     35 H16          1.7230    -0.5950     0.0940 hc         1 0S1       0.055700
     36 H17         -0.5400    -0.3310     1.2150 ha         1 0S1       0.163000
     37 H18         -0.7760     1.8060     2.3420 ha         1 0S1       0.164500
     38 H19          1.0630     1.9860     2.4210 ha         1 0S1       0.164500
@<TRIPOS>BOND
     1     1     2 1   
     2     1     4 1   
     3     1     5 1   
     4     1     6 1   
     5     2     7 1   
     6     3     4 1   
     7     3     5 1   
     8     3     8 1   
     9     3     9 1   
    10     4    10 1   
    11     4    33 1   
    12     5    11 1   
    13     5    12 1   
    14     8    31 1   
    15     8    34 1   
    16     8    35 1   
    17    11    13 1   
    18    11    23 1   
    19    13    14 1   
    20    13    15 2   
    21    13    16 2   
    22    14    17 ar  
    23    14    21 ar  
    24    17    18 ar  
    25    17    24 1   
    26    18    19 ar  
    27    18    25 1   
    28    19    20 ar  
    29    19    22 1   
    30    20    21 ar  
    31    20    26 1   
    32    21    27 1   
    33    22    28 1   
    34    22    29 1   
    35    22    30 1   
    36    31    32 2   
    37    31    36 1   
    38    32    37 1   
    39    32    38 1   
@<TRIPOS>SUBSTRUCTURE
     1 0S1         1 TEMP              0 ****  ****    0 ROOT
