@<TRIPOS>MOLECULE
0S1
   38    39     1     0     0
SMALL
No Charge or Current Charge


@<TRIPOS>ATOM
      1 C1           2.1190    -3.9110     1.8330 cy         1 0S1       0.155300
      2 O1           2.1190    -4.3730     3.1840 oh         1 0S1      -0.658000
      3 C2           1.8500    -1.7710     1.9090 cy         1 0S1      -0.097700
      4 C3           0.9390    -2.9630     1.4450 cy         1 0S1      -0.078400
      5 C4           3.0650    -2.6880     1.5160 cy         1 0S1       0.154500
      6 H            2.2490    -4.7620     1.1530 h1         1 0S1       0.056700
      7 HO           2.9780    -4.8270     3.3280 ho         1 0S1       0.448000
      8 C5           1.6790    -0.4180     1.1950 c3         1 0S1      -0.036200
      9 HG           1.7870    -1.5850     2.9880 hc         1 0S1       0.072700
     10 HGA          0.7010    -2.9630     0.3750 hc         1 0S1       0.066200
     11 N1           4.3030    -2.5740     2.2670 n7         1 0S1      -0.867300
     12 HB1          3.2940    -2.6340     0.4420 h1         1 0S1       0.096700
     13 S1           5.3390    -1.2770     2.1500 sy         1 0S1       1.164600
     14 C6           6.7960    -1.9580     2.9510 ca         1 0S1      -0.292500
     15 O2           4.7440    -0.2160     2.9640 o          1 0S1      -0.552500
     16 O3           5.6090    -1.1180     0.7180 o          1 0S1      -0.552500
     17 C7           7.6530    -2.8180     2.2350 ca         1 0S1      -0.003500
     18 C8           8.7920    -3.3540     2.8610 ca         1 0S1      -0.135500
     19 C9           9.0840    -3.0420     4.2020 ca         1 0S1      -0.017300
     20 C10          8.2250    -2.1830     4.9130 ca         1 0S1      -0.135500
     21 C11          7.0840    -1.6430     4.2940 ca         1 0S1      -0.003500
     22 C12         10.3180    -3.6210     4.8740 c3         1 0S1      -0.057800
     23 HB2          4.0810    -2.5410     3.2590 hn         1 0S1       0.476000
     24 H7           7.4400    -3.0740     1.1990 ha         1 0S1       0.136000
     25 H8           9.4490    -4.0150     2.3000 ha         1 0S1       0.118500
     26 H9           8.4410    -1.9320     5.9490 ha         1 0S1       0.118500
     27 H10          6.4320    -0.9810     4.8630 ha         1 0S1       0.136000
     28 H11         11.1820    -2.9600     4.7390 hc         1 0S1       0.050033
     29 H12         10.1620    -3.7540     5.9510 hc         1 0S1       0.050033
     30 H13         10.5780    -4.6020     4.4570 hc         1 0S1       0.050033
     31 C13          0.3430     0.2280     1.4990 c2         1 0S1      -0.219200
     32 C14          0.1730     1.3740     2.1760 c2         1 0S1      -0.311000
     33 H14          0.0090    -3.1000     2.0060 hc         1 0S1       0.066200
     34 H15          2.4940     0.2550     1.4880 hc         1 0S1       0.055700
     35 H16          1.7810    -0.5550     0.1110 hc         1 0S1       0.055700
     36 H17         -0.5220    -0.3170     1.1110 ha         1 0S1       0.163000
     37 H18         -0.8210     1.7870     2.3590 ha         1 0S1       0.164500
     38 H19          1.0170     1.9390     2.5730 ha         1 0S1       0.164500
@<TRIPOS>BOND
     1     1     2 1   
     2     1     4 1   
     3     1     5 1   
     4     1     6 1   
     5     2     7 1   
     6     3     4 1   
     7     3     5 1   
     8     3     8 1   
     9     3     9 1   
    10     4    10 1   
    11     4    33 1   
    12     5    11 1   
    13     5    12 1   
    14     8    31 1   
    15     8    34 1   
    16     8    35 1   
    17    11    13 1   
    18    11    23 1   
    19    13    14 1   
    20    13    15 2   
    21    13    16 2   
    22    14    17 ar  
    23    14    21 ar  
    24    17    18 ar  
    25    17    24 1   
    26    18    19 ar  
    27    18    25 1   
    28    19    20 ar  
    29    19    22 1   
    30    20    21 ar  
    31    20    26 1   
    32    21    27 1   
    33    22    28 1   
    34    22    29 1   
    35    22    30 1   
    36    31    32 2   
    37    31    36 1   
    38    32    37 1   
    39    32    38 1   
@<TRIPOS>SUBSTRUCTURE
     1 0S1         1 TEMP              0 ****  ****    0 ROOT
