@<TRIPOS>MOLECULE
0S2
   57    58     1     0     0
SMALL
abcg2


@<TRIPOS>ATOM
      1 C12          1.1530     3.2880     2.4300 c3         1 0S2      -0.102100
      2 C11          1.6730     2.9320     1.0420 c3         1 0S2       0.137700
      3 C14          2.2600     0.5320     1.2710 c          1 0S2       0.622100
      4 C13          3.0960     3.4240     0.8110 c3         1 0S2      -0.102100
      5 C15          2.0780    -0.8830     0.7530 c6         1 0S2      -0.136700
      6 C17          2.2980    -1.9310     1.8410 c6         1 0S2      -0.067400
      7 C18          2.1530    -3.3360     1.2650 c6         1 0S2      -0.068900
      8 C19          3.1040    -3.5830     0.0950 c6         1 0S2      -0.065700
      9 C20          2.9120    -2.5100    -0.9760 c6         1 0S2      -0.068900
     10 C21          3.0540    -1.1030    -0.4120 c6         1 0S2      -0.067400
     11 C02         -0.8750     0.7380     0.6640 cc         1 0S2      -0.117000
     12 C03         -1.9110     0.5150    -0.2030 cd         1 0S2      -0.188000
     13 S04         -1.4400     0.8760    -1.8250 ss         1 0S2       0.293000
     14 C05          0.1490     1.3130    -1.3470 cd         1 0S2      -0.219600
     15 C06          0.3040     1.1830     0.0100 cc         1 0S2      -0.029400
     16 N07          1.4740     1.5010     0.7370 n          1 0S2      -0.275000
     17 O09          2.2420     2.0400    -2.1550 o          1 0S2      -0.698000
     18 O10          0.5430     1.7560    -3.5830 o          1 0S2      -0.698000
     19 O16          3.1370     0.7880     2.0850 o          1 0S2      -0.642100
     20 C22          2.9250    -4.9820    -0.4790 c3         1 0S2      -0.084100
     21 C23         -4.3320    -0.3220     0.3380 c1         1 0S2      -0.187100
     22 C24         -5.6920    -0.7820     0.6320 c3         1 0S2       0.054100
     23 C25         -6.5240     0.3980     1.1510 c3         1 0S2      -0.078767
     24 C26         -6.3170    -1.3400    -0.6530 c3         1 0S2      -0.078767
     25 C27         -5.6310    -1.8820     1.7000 c3         1 0S2      -0.078767
     26 H1           1.2270     4.3650     2.5880 hc         1 0S2       0.038200
     27 H2           0.1040     3.0110     2.5460 hc         1 0S2       0.038200
     28 H3           1.7280     2.7930     3.2110 hc         1 0S2       0.038200
     29 H4           1.0470     3.4450     0.3110 h1         1 0S2       0.061700
     30 H5           3.7740     3.1430     1.6130 hc         1 0S2       0.038200
     31 H6           3.4800     3.0440    -0.1330 hc         1 0S2       0.038200
     32 H7           3.0800     4.5130     0.7520 hc         1 0S2       0.038200
     33 H8           1.0690    -1.0230     0.3580 hc         1 0S2       0.070700
     34 H9           3.2960    -1.8150     2.2720 hc         1 0S2       0.055950
     35 H10          1.5830    -1.7870     2.6550 hc         1 0S2       0.055950
     36 H11          2.3300    -4.0780     2.0490 hc         1 0S2       0.033700
     37 H12          1.1210    -3.4900     0.9240 hc         1 0S2       0.033700
     38 H13          4.1300    -3.4940     0.4750 hc         1 0S2       0.040700
     39 H14          3.6320    -2.6590    -1.7860 hc         1 0S2       0.033700
     40 H15          1.9150    -2.6220    -1.4200 hc         1 0S2       0.033700
     41 H16          2.8740    -0.3560    -1.1880 hc         1 0S2       0.055950
     42 H17          4.0780    -0.9470    -0.0570 hc         1 0S2       0.055950
     43 H18         -0.9470     0.5810     1.7320 ha         1 0S2       0.121000
     44 H20          1.9110    -5.1170    -0.8650 hc         1 0S2       0.024700
     45 H21          3.6190    -5.1700    -1.3000 hc         1 0S2       0.024700
     46 H22          3.0940    -5.7480     0.2800 hc         1 0S2       0.024700
     47 H23         -7.5400     0.0650     1.3710 hc         1 0S2       0.033589
     48 H24         -6.0960     0.8080     2.0670 hc         1 0S2       0.033589
     49 H25         -6.5820     1.1980     0.4130 hc         1 0S2       0.033589
     50 H26         -6.3530    -0.5840    -1.4380 hc         1 0S2       0.033589
     51 H27         -5.7500    -2.1930    -1.0260 hc         1 0S2       0.033589
     52 H28         -7.3370    -1.6720    -0.4550 hc         1 0S2       0.033589
     53 H29         -5.0560    -2.7410     1.3510 hc         1 0S2       0.033589
     54 H30         -5.1730    -1.5170     2.6200 hc         1 0S2       0.033589
     55 H31         -6.6390    -2.2240     1.9360 hc         1 0S2       0.033589
     56 C01         -3.2140     0.0630     0.0950 ch         1 0S2      -0.043000
     57 C08          1.0750     1.7460    -2.4550 c          1 0S2       0.731600
@<TRIPOS>BOND
     1     1     2 1   
     2     1    26 1   
     3     1    27 1   
     4     1    28 1   
     5     2     4 1   
     6     2    16 1   
     7     2    29 1   
     8     3     5 1   
     9     3    16 1   
    10     3    19 2   
    11     4    30 1   
    12     4    31 1   
    13     4    32 1   
    14     5     6 1   
    15     5    10 1   
    16     5    33 1   
    17     6     7 1   
    18     6    34 1   
    19     6    35 1   
    20     7     8 1   
    21     7    36 1   
    22     7    37 1   
    23     8     9 1   
    24     8    20 1   
    25     8    38 1   
    26     9    10 1   
    27     9    39 1   
    28     9    40 1   
    29    10    41 1   
    30    10    42 1   
    31    11    12 2   
    32    11    15 1   
    33    11    43 1   
    34    12    13 1   
    35    12    56 1   
    36    13    14 1   
    37    14    15 2   
    38    14    57 1   
    39    15    16 1   
    40    17    57 1   
    41    18    57 1   
    42    20    44 1   
    43    20    45 1   
    44    20    46 1   
    45    21    22 1   
    46    21    56 3   
    47    22    23 1   
    48    22    24 1   
    49    22    25 1   
    50    23    47 1   
    51    23    48 1   
    52    23    49 1   
    53    24    50 1   
    54    24    51 1   
    55    24    52 1   
    56    25    53 1   
    57    25    54 1   
    58    25    55 1   
@<TRIPOS>SUBSTRUCTURE
     1 0S2         1 TEMP              0 ****  ****    0 ROOT
