@<TRIPOS>MOLECULE
0S2
   57    58     1     0     0
SMALL
No Charge or Current Charge


@<TRIPOS>ATOM
      1 C12          1.2130     3.6400     2.1110 c3         1 0S2      -0.102100
      2 C11          1.8610     3.1240     0.8080 c3         1 0S2       0.137700
      3 C14          2.1590     0.6480     1.1840 c          1 0S2       0.622100
      4 C13          3.3690     3.4630     0.6930 c3         1 0S2      -0.102100
      5 C15          2.0540    -0.8000     0.6230 c6         1 0S2      -0.136700
      6 C17          1.4790    -1.8230     1.6400 c6         1 0S2      -0.067400
      7 C18          1.3350    -3.2250     0.9980 c6         1 0S2      -0.068900
      8 C19          2.6760    -3.7130     0.3830 c6         1 0S2      -0.065700
      9 C20          3.2100    -2.6890    -0.6570 c6         1 0S2      -0.068900
     10 C21          3.3740    -1.2780    -0.0370 c6         1 0S2      -0.067400
     11 C02         -0.7490     0.8500     0.4750 cc         1 0S2      -0.117000
     12 C03         -1.8660     0.6890    -0.2940 cd         1 0S2      -0.188000
     13 S04         -1.6620     1.3840    -1.9110 ss         1 0S2       0.293000
     14 C05          0.0120     1.8290    -1.5220 cd         1 0S2      -0.219600
     15 C06          0.3160     1.4860    -0.2160 cc         1 0S2      -0.029400
     16 N07          1.4970     1.7110     0.5000 n          1 0S2      -0.275000
     17 O09          2.0930     2.5880    -2.3040 o          1 0S2      -0.698000
     18 O10          0.4390     2.6290    -3.6590 o          1 0S2      -0.698000
     19 O16          2.8660     0.8480     2.1670 o          1 0S2      -0.642100
     20 C22          2.5310    -5.1270    -0.2390 c3         1 0S2      -0.084100
     21 C23         -4.1520    -0.4290     0.3690 c1         1 0S2      -0.187100
     22 C24         -5.4170    -1.0830     0.7500 c3         1 0S2       0.054100
     23 C25         -6.1550    -0.1950     1.7830 c3         1 0S2      -0.078767
     24 C26         -6.2960    -1.2620    -0.5140 c3         1 0S2      -0.078767
     25 C27         -5.1040    -2.4660     1.3740 c3         1 0S2      -0.078767
     26 H1           1.3900     4.7150     2.2290 hc         1 0S2       0.038200
     27 H2           0.1290     3.4730     2.0940 hc         1 0S2       0.038200
     28 H3           1.6260     3.1270     2.9880 hc         1 0S2       0.038200
     29 H4           1.3920     3.7210     0.0150 h1         1 0S2       0.061700
     30 H5           3.9380     3.0810     1.5480 hc         1 0S2       0.038200
     31 H6           3.7970     3.0400    -0.2220 hc         1 0S2       0.038200
     32 H7           3.5100     4.5490     0.6620 hc         1 0S2       0.038200
     33 H8           1.3390    -0.7680    -0.2060 hc         1 0S2       0.070700
     34 H9           2.1390    -1.8860     2.5160 hc         1 0S2       0.055950
     35 H10          0.5020    -1.4850     2.0110 hc         1 0S2       0.055950
     36 H11          0.9880    -3.9400     1.7570 hc         1 0S2       0.033700
     37 H12          0.5580    -3.1950     0.2220 hc         1 0S2       0.033700
     38 H13          3.4160    -3.8090     1.1910 hc         1 0S2       0.040700
     39 H14          4.1760    -3.0270    -1.0550 hc         1 0S2       0.033700
     40 H15          2.5230    -2.6360    -1.5130 hc         1 0S2       0.033700
     41 H16          3.6860    -0.5650    -0.8140 hc         1 0S2       0.055950
     42 H17          4.1780    -1.2960     0.7110 hc         1 0S2       0.055950
     43 H18         -0.6780     0.5330     1.5110 ha         1 0S2       0.121000
     44 H20          1.8050    -5.1280    -1.0620 hc         1 0S2       0.024700
     45 H21          3.4880    -5.4840    -0.6380 hc         1 0S2       0.024700
     46 H22          2.1920    -5.8550     0.5070 hc         1 0S2       0.024700
     47 H23         -7.1030    -0.6570     2.0860 hc         1 0S2       0.033589
     48 H24         -5.5480    -0.0500     2.6850 hc         1 0S2       0.033589
     49 H25         -6.3820     0.7940     1.3640 hc         1 0S2       0.033589
     50 H26         -6.5250    -0.2930    -0.9760 hc         1 0S2       0.033589
     51 H27         -5.7890    -1.8840    -1.2620 hc         1 0S2       0.033589
     52 H28         -7.2460    -1.7470    -0.2610 hc         1 0S2       0.033589
     53 H29         -4.5750    -3.1110     0.6600 hc         1 0S2       0.033589
     54 H30         -4.4770    -2.3640     2.2680 hc         1 0S2       0.033589
     55 H31         -6.0290    -2.9780     1.6680 hc         1 0S2       0.033589
     56 C01         -3.1020     0.0950     0.0590 ch         1 0S2      -0.043000
     57 C08          0.9150     2.3970    -2.5580 c          1 0S2       0.731600
@<TRIPOS>BOND
     1     1     2 1   
     2     1    26 1   
     3     1    27 1   
     4     1    28 1   
     5     2     4 1   
     6     2    16 1   
     7     2    29 1   
     8     3     5 1   
     9     3    16 1   
    10     3    19 2   
    11     4    30 1   
    12     4    31 1   
    13     4    32 1   
    14     5     6 1   
    15     5    10 1   
    16     5    33 1   
    17     6     7 1   
    18     6    34 1   
    19     6    35 1   
    20     7     8 1   
    21     7    36 1   
    22     7    37 1   
    23     8     9 1   
    24     8    20 1   
    25     8    38 1   
    26     9    10 1   
    27     9    39 1   
    28     9    40 1   
    29    10    41 1   
    30    10    42 1   
    31    11    12 2   
    32    11    15 1   
    33    11    43 1   
    34    12    13 1   
    35    12    56 1   
    36    13    14 1   
    37    14    15 2   
    38    14    57 1   
    39    15    16 1   
    40    17    57 1   
    41    18    57 1   
    42    20    44 1   
    43    20    45 1   
    44    20    46 1   
    45    21    22 1   
    46    21    56 3   
    47    22    23 1   
    48    22    24 1   
    49    22    25 1   
    50    23    47 1   
    51    23    48 1   
    52    23    49 1   
    53    24    50 1   
    54    24    51 1   
    55    24    52 1   
    56    25    53 1   
    57    25    54 1   
    58    25    55 1   
@<TRIPOS>SUBSTRUCTURE
     1 0S2         1 TEMP              0 ****  ****    0 ROOT
