@<TRIPOS>MOLECULE
0S3
   56    57     1     0     0
SMALL
No Charge or Current Charge


@<TRIPOS>ATOM
      1 C01         -0.7880    -0.6470    -0.7590 cc         1 0S3      -0.090000
      2 C02          0.4310    -0.6390    -0.0270 cc         1 0S3       0.009600
      3 C03          0.2590    -0.8110     1.3370 cd         1 0S3      -0.233600
      4 S04         -1.4650    -0.8650     1.7520 ss         1 0S3       0.294000
      5 C05         -1.8920    -0.7810     0.0360 cd         1 0S3      -0.196000
      6 C06         -3.2560    -0.8180    -0.3450 ch         1 0S3      -0.039000
      7 C07         -4.4260    -0.8310    -0.6710 c1         1 0S3      -0.190100
      8 C08         -5.8470    -0.8330    -1.0580 c3         1 0S3       0.054100
      9 C09         -6.7120    -0.5130     0.1880 c3         1 0S3      -0.078433
     10 C10         -6.0770     0.2440    -2.1490 c3         1 0S3      -0.078433
     11 C11         -6.2210    -2.2310    -1.6120 c3         1 0S3      -0.078433
     12 N12          1.6230    -0.5150    -0.7540 n          1 0S3      -0.160400
     13 C13          2.6420     0.4570    -0.4600 c          1 0S3       0.646100
     14 N14          1.8040    -1.4640    -1.8260 n3         1 0S3      -0.499600
     15 C15          2.2580     1.7310     0.3490 c6         1 0S3      -0.120700
     16 O16          3.7610     0.3840    -0.9710 o          1 0S3      -0.629100
     17 C17          3.4290     2.3820     1.1340 c6         1 0S3      -0.066900
     18 C18          2.9390     3.5990     1.9590 c6         1 0S3      -0.069400
     19 C19          2.2020     4.6350     1.0650 c6         1 0S3      -0.064700
     20 C20          1.0150     3.9680     0.3150 c6         1 0S3      -0.069400
     21 C21          1.4800     2.7520    -0.5240 c6         1 0S3      -0.066900
     22 C22          1.7310     5.8610     1.8920 c3         1 0S3      -0.084100
     23 C23          1.8090    -0.9880    -3.2260 c3         1 0S3       0.161100
     24 C24          2.6670    -2.6420    -1.6020 c3         1 0S3       0.161100
     25 C25          1.3070    -1.0430     2.3640 c          1 0S3       0.723600
     26 O26          2.4800    -1.0990     2.0360 o          1 0S3      -0.702500
     27 O27          0.9440    -1.1900     3.5210 o          1 0S3      -0.702500
     28 H1          -0.8270    -0.5500    -1.8380 ha         1 0S3       0.122000
     29 H2          -7.7780    -0.5070    -0.0700 hc         1 0S3       0.033033
     30 H3          -6.5610    -1.2610     0.9760 hc         1 0S3       0.033033
     31 H4          -6.4600     0.4720     0.6010 hc         1 0S3       0.033033
     32 H5          -5.8130     1.2430    -1.7790 hc         1 0S3       0.033033
     33 H6          -5.4690     0.0400    -3.0390 hc         1 0S3       0.033033
     34 H7          -7.1290     0.2660    -2.4580 hc         1 0S3       0.033033
     35 H8          -5.6150    -2.4810    -2.4930 hc         1 0S3       0.033033
     36 H9          -6.0600    -3.0110    -0.8570 hc         1 0S3       0.033033
     37 H10         -7.2760    -2.2630    -1.9090 hc         1 0S3       0.033033
     38 H11          1.5100     1.4180     1.0810 hc         1 0S3       0.082700
     39 H12          3.8900     1.6430     1.8030 hc         1 0S3       0.052450
     40 H13          4.2140     2.7060     0.4370 hc         1 0S3       0.052450
     41 H14          2.2700     3.2540     2.7590 hc         1 0S3       0.033450
     42 H15          3.7970     4.0740     2.4540 hc         1 0S3       0.033450
     43 H16          2.9120     5.0220     0.3200 hc         1 0S3       0.038700
     44 H17          0.2520     3.6450     1.0380 hc         1 0S3       0.033450
     45 H18          0.5280     4.7010    -0.3430 hc         1 0S3       0.033450
     46 H19          2.1200     3.0950    -1.3490 hc         1 0S3       0.052450
     47 H20          0.6080     2.2690    -0.9870 hc         1 0S3       0.052450
     48 H21          2.5770     6.3520     2.3880 hc         1 0S3       0.025033
     49 H22          1.2450     6.6070     1.2510 hc         1 0S3       0.025033
     50 H23          1.0130     5.5670     2.6670 hc         1 0S3       0.025033
     51 H24          2.7560    -0.4860    -3.4610 h1         1 0S3       0.035200
     52 H25          1.6780    -1.8250    -3.9250 h1         1 0S3       0.035200
     53 H26          0.9920    -0.2750    -3.3930 h1         1 0S3       0.035200
     54 H27          2.4370    -3.1050    -0.6340 h1         1 0S3       0.035200
     55 H28          2.5130    -3.3970    -2.3850 h1         1 0S3       0.035200
     56 H29          3.7260    -2.3540    -1.6030 h1         1 0S3       0.035200
@<TRIPOS>BOND
     1     1     2 1   
     2     1     5 2   
     3     1    28 1   
     4     2     3 2   
     5     2    12 1   
     6     3     4 1   
     7     3    25 1   
     8     4     5 1   
     9     5     6 1   
    10     6     7 3   
    11     7     8 1   
    12     8     9 1   
    13     8    10 1   
    14     8    11 1   
    15     9    29 1   
    16     9    30 1   
    17     9    31 1   
    18    10    32 1   
    19    10    33 1   
    20    10    34 1   
    21    11    35 1   
    22    11    36 1   
    23    11    37 1   
    24    12    13 1   
    25    12    14 1   
    26    13    15 1   
    27    13    16 2   
    28    14    23 1   
    29    14    24 1   
    30    15    17 1   
    31    15    21 1   
    32    15    38 1   
    33    17    18 1   
    34    17    39 1   
    35    17    40 1   
    36    18    19 1   
    37    18    41 1   
    38    18    42 1   
    39    19    20 1   
    40    19    22 1   
    41    19    43 1   
    42    20    21 1   
    43    20    44 1   
    44    20    45 1   
    45    21    46 1   
    46    21    47 1   
    47    22    48 1   
    48    22    49 1   
    49    22    50 1   
    50    23    51 1   
    51    23    52 1   
    52    23    53 1   
    53    24    54 1   
    54    24    55 1   
    55    24    56 1   
    56    25    26 1   
    57    25    27 1   
@<TRIPOS>SUBSTRUCTURE
     1 0S3         1 TEMP              0 ****  ****    0 ROOT
