@<TRIPOS>MOLECULE
0S3
   56    57     1     0     0
SMALL
bcc


@<TRIPOS>ATOM
      1 C01         -0.7550    -0.6040    -0.9210 cc         1 0S3      -0.108000
      2 C02          0.4830    -0.7310    -0.2360 cc         1 0S3       0.009600
      3 C03          0.3430    -1.1130     1.0740 cd         1 0S3      -0.088700
      4 S04         -1.3120    -1.3080     1.4700 ss         1 0S3       0.004200
      5 C05         -1.8290    -0.8930    -0.1210 cd         1 0S3      -0.051100
      6 C06         -3.2040    -0.8140    -0.4180 ch         1 0S3      -0.039000
      7 C07         -4.3870    -0.7400    -0.6310 c1         1 0S3      -0.190100
      8 C08         -5.8270    -0.6610    -0.8670 c3         1 0S3       0.054100
      9 C09         -6.5280    -0.3330     0.4560 c3         1 0S3      -0.078433
     10 C10         -6.1220     0.4400    -1.8950 c3         1 0S3      -0.078433
     11 C11         -6.3290    -2.0140    -1.3850 c3         1 0S3      -0.078433
     12 N12          1.7100    -0.4940    -0.8900 n          1 0S3      -0.227400
     13 C13          2.5980     0.4660    -0.5080 c          1 0S3       0.713100
     14 N14          2.0190    -1.4520    -1.8560 n3         1 0S3      -0.499600
     15 C15          2.0460     1.6350     0.2810 c6         1 0S3      -0.120700
     16 O16          3.7520     0.4590    -0.9050 o          1 0S3      -0.629100
     17 C17          3.0720     2.2250     1.2410 c6         1 0S3      -0.066900
     18 C18          2.5050     3.4510     1.9500 c6         1 0S3      -0.069400
     19 C19          2.0280     4.5210     0.9700 c6         1 0S3      -0.064700
     20 C20          1.0280     3.9250    -0.0170 c6         1 0S3      -0.069400
     21 C21          1.5810     2.6970    -0.7290 c6         1 0S3      -0.066900
     22 C22          1.4380     5.7200     1.7000 c3         1 0S3      -0.084100
     23 C23          2.3120    -0.9100    -3.1670 c3         1 0S3       0.161100
     24 C24          2.9310    -2.4900    -1.4150 c3         1 0S3       0.161100
     25 C25          1.3370    -1.3550     2.1610 c          1 0S3       0.934200
     26 O26          2.5390    -1.1400     1.9150 o          1 0S3      -0.807800
     27 O27          0.8490    -1.7690     3.2370 o          1 0S3      -0.807800
     28 H1          -0.8500    -0.2890    -1.9510 ha         1 0S3       0.140000
     29 H2          -7.6070    -0.2770     0.2970 hc         1 0S3       0.033033
     30 H3          -6.3410    -1.1000     1.2080 hc         1 0S3       0.033033
     31 H4          -6.1960     0.6240     0.8600 hc         1 0S3       0.033033
     32 H5          -5.7420     1.4050    -1.5600 hc         1 0S3       0.033033
     33 H6          -5.6680     0.2110    -2.8600 hc         1 0S3       0.033033
     34 H7          -7.2010     0.5290    -2.0380 hc         1 0S3       0.033033
     35 H8          -5.8280    -2.3000    -2.3100 hc         1 0S3       0.033033
     36 H9          -6.1580    -2.8000    -0.6480 hc         1 0S3       0.033033
     37 H10         -7.4020    -1.9580    -1.5800 hc         1 0S3       0.033033
     38 H11          1.1690     1.3310     0.8570 hc         1 0S3       0.082700
     39 H12          3.3700     1.4710     1.9730 hc         1 0S3       0.052450
     40 H13          3.9730     2.5100     0.6900 hc         1 0S3       0.052450
     41 H14          1.6650     3.1510     2.5880 hc         1 0S3       0.033450
     42 H15          3.2620     3.8730     2.6180 hc         1 0S3       0.033450
     43 H16          2.9010     4.8660     0.4010 hc         1 0S3       0.038700
     44 H17          0.1130     3.6480     0.5200 hc         1 0S3       0.033450
     45 H18          0.7360     4.6750    -0.7580 hc         1 0S3       0.033450
     46 H19          2.4260     2.9870    -1.3600 hc         1 0S3       0.052450
     47 H20          0.8200     2.2780    -1.3900 hc         1 0S3       0.052450
     48 H21          2.1700     6.1790     2.3670 hc         1 0S3       0.025033
     49 H22          1.1040     6.4880     0.9990 hc         1 0S3       0.025033
     50 H23          0.5730     5.4220     2.2990 hc         1 0S3       0.025033
     51 H24          3.3120    -0.4720    -3.2610 h1         1 0S3       0.035200
     52 H25          2.2280    -1.7160    -3.8990 h1         1 0S3       0.035200
     53 H26          1.5720    -0.1530    -3.4250 h1         1 0S3       0.035200
     54 H27          2.6130    -2.8640    -0.4430 h1         1 0S3       0.035200
     55 H28          2.8830    -3.3140    -2.1280 h1         1 0S3       0.035200
     56 H29          3.9720    -2.1610    -1.3450 h1         1 0S3       0.035200
@<TRIPOS>BOND
     1     1     2 1   
     2     1     5 2   
     3     1    28 1   
     4     2     3 2   
     5     2    12 1   
     6     3     4 1   
     7     3    25 1   
     8     4     5 1   
     9     5     6 1   
    10     6     7 3   
    11     7     8 1   
    12     8     9 1   
    13     8    10 1   
    14     8    11 1   
    15     9    29 1   
    16     9    30 1   
    17     9    31 1   
    18    10    32 1   
    19    10    33 1   
    20    10    34 1   
    21    11    35 1   
    22    11    36 1   
    23    11    37 1   
    24    12    13 1   
    25    12    14 1   
    26    13    15 1   
    27    13    16 2   
    28    14    23 1   
    29    14    24 1   
    30    15    17 1   
    31    15    21 1   
    32    15    38 1   
    33    17    18 1   
    34    17    39 1   
    35    17    40 1   
    36    18    19 1   
    37    18    41 1   
    38    18    42 1   
    39    19    20 1   
    40    19    22 1   
    41    19    43 1   
    42    20    21 1   
    43    20    44 1   
    44    20    45 1   
    45    21    46 1   
    46    21    47 1   
    47    22    48 1   
    48    22    49 1   
    49    22    50 1   
    50    23    51 1   
    51    23    52 1   
    52    23    53 1   
    53    24    54 1   
    54    24    55 1   
    55    24    56 1   
    56    25    26 1   
    57    25    27 1   
@<TRIPOS>SUBSTRUCTURE
     1 0S3         1 TEMP              0 ****  ****    0 ROOT
