@<TRIPOS>MOLECULE
0S4
   72    73     1     0     0
SMALL
No Charge or Current Charge


@<TRIPOS>ATOM
      1 C1          -3.1010    -0.3490     0.5550 ca         1 0S4      -0.197000
      2 C2          -4.2730     0.2040     0.0020 ca         1 0S4       0.128100
      3 C3          -4.2760     1.5530    -0.4050 ca         1 0S4      -0.096300
      4 C4          -3.1080     2.3300    -0.2680 ca         1 0S4      -0.079000
      5 C5          -1.9120     1.7810     0.2570 ca         1 0S4      -0.092300
      6 C6          -1.9430     0.4330     0.6860 ca         1 0S4      -0.073000
      7 C7          -0.6180     2.6330     0.4400 c3         1 0S4       0.066600
      8 C8           0.6660     1.7790     0.1990 ca         1 0S4      -0.099300
      9 C9          -0.5330     3.8480    -0.5530 c3         1 0S4      -0.066900
     10 C10         -0.6900     3.2450     1.8840 c3         1 0S4      -0.066900
     11 C11         -0.7020     2.2450     3.0660 c3         1 0S4      -0.089600
     12 C12         -0.5380     3.5160    -2.0660 c3         1 0S4      -0.089600
     13 C13          0.6830     0.7930    -0.8170 ca         1 0S4      -0.075000
     14 C14          1.8310     0.0200    -1.0780 ca         1 0S4      -0.106300
     15 C15          3.0030     0.2360    -0.3270 ca         1 0S4       0.139100
     16 C16          1.7970    -1.0380    -2.1760 c3         1 0S4      -0.033800
     17 C17          3.0130     1.2330     0.6680 ca         1 0S4      -0.203000
     18 C18          1.8630     1.9990     0.9210 ca         1 0S4      -0.076000
     19 O19         -5.4330    -0.5340    -0.1430 os         1 0S4      -0.316100
     20 O22         -8.3630    -4.4980     0.3740 oh         1 0S4      -0.424100
     21 C20         -5.5250    -1.9240     0.2490 c3         1 0S4       0.077600
     22 C21         -6.9260    -2.5210    -0.0220 c          1 0S4       0.603100
     23 N23         -7.0600    -3.8650     0.3250 ns         1 0S4      -0.390400
     24 O24         -7.8540    -1.8820    -0.5110 o          1 0S4      -0.533100
     25 C25          7.7770    -1.4480     0.2570 c3         1 0S4      -0.076000
     26 C26          8.7150    -2.4510    -0.4750 c3         1 0S4      -0.086100
     27 C27          7.6440    -1.8870     1.7450 c3         1 0S4      -0.086100
     28 C28          8.4520    -0.0480     0.2100 c3         1 0S4      -0.086100
     29 C29          5.3610    -0.3770     0.1070 c3         1 0S4       0.129600
     30 O30          4.1170    -0.5360    -0.6030 os         1 0S4      -0.335100
     31 C31          6.3810    -1.4020    -0.4700 c3         1 0S4       0.173300
     32 O32          5.7680    -2.7050    -0.4800 oh         1 0S4      -0.642000
     33 C33         -5.5380     2.1810    -0.9880 c3         1 0S4      -0.036800
     34 H1          -3.0680    -1.3800     0.8930 ha         1 0S4       0.111000
     35 H2          -3.1500     3.3700    -0.5730 ha         1 0S4       0.116000
     36 H3          -1.0610    -0.0190     1.1340 ha         1 0S4       0.120000
     37 H4          -1.3400     4.5590    -0.3480 hc         1 0S4       0.038450
     38 H5           0.3910     4.4020    -0.3440 hc         1 0S4       0.038450
     39 H6           0.1310     3.9550     2.0340 hc         1 0S4       0.038450
     40 H7          -1.6030     3.8490     1.9600 hc         1 0S4       0.038450
     41 H8          -1.6360     1.6720     3.0900 hc         1 0S4       0.035700
     42 H9           0.1360     1.5410     3.0110 hc         1 0S4       0.035700
     43 H10         -0.6250     2.7870     4.0160 hc         1 0S4       0.035700
     44 H11         -1.3870     2.8810    -2.3390 hc         1 0S4       0.035700
     45 H12         -0.6060     4.4400    -2.6510 hc         1 0S4       0.035700
     46 H13          0.3870     3.0070    -2.3620 hc         1 0S4       0.035700
     47 H14         -0.2060     0.6260    -1.4190 ha         1 0S4       0.119000
     48 H15          2.5590    -0.8370    -2.9390 hc         1 0S4       0.043367
     49 H16          1.9900    -2.0360    -1.7640 hc         1 0S4       0.043367
     50 H17          0.8250    -1.0730    -2.6820 hc         1 0S4       0.043367
     51 H18          3.9040     1.4350     1.2550 ha         1 0S4       0.113000
     52 H19          1.9260     2.7670     1.6850 ha         1 0S4       0.111000
     53 H20         -8.2400    -5.3280    -0.1460 ho         1 0S4       0.450000
     54 H21         -4.7960    -2.5290    -0.3040 h1         1 0S4       0.050200
     55 H22         -5.3200    -2.0360     1.3210 h1         1 0S4       0.050200
     56 H23         -6.3180    -4.3200     0.8560 hn         1 0S4       0.333500
     57 H24          8.3260    -3.4750    -0.4230 hc         1 0S4       0.037033
     58 H25          8.8250    -2.1840    -1.5330 hc         1 0S4       0.037033
     59 H26          9.7150    -2.4560    -0.0240 hc         1 0S4       0.037033
     60 H27          7.1700    -2.8730     1.8300 hc         1 0S4       0.037033
     61 H28          8.6310    -1.9530     2.2200 hc         1 0S4       0.037033
     62 H29          7.0500    -1.1720     2.3250 hc         1 0S4       0.037033
     63 H30          9.4650    -0.0870     0.6280 hc         1 0S4       0.037033
     64 H31          8.5270     0.3180    -0.8210 hc         1 0S4       0.037033
     65 H32          7.8880     0.6910     0.7930 hc         1 0S4       0.037033
     66 H33          5.7460     0.6420    -0.0270 h1         1 0S4       0.037200
     67 H34          5.2130    -0.5580     1.1790 h1         1 0S4       0.037200
     68 H35          6.5680    -1.0900    -1.5090 h1         1 0S4       0.085700
     69 H36          4.8200    -2.5450    -0.6830 ho         1 0S4       0.437000
     70 H37         -6.3610     2.1490    -0.2650 hc         1 0S4       0.045700
     71 H38         -5.3840     3.2300    -1.2670 hc         1 0S4       0.045700
     72 H39         -5.8620     1.6460    -1.8890 hc         1 0S4       0.045700
@<TRIPOS>BOND
     1     1     2 ar  
     2     1     6 ar  
     3     1    34 1   
     4     2     3 ar  
     5     2    19 1   
     6     3     4 ar  
     7     3    33 1   
     8     4     5 ar  
     9     4    35 1   
    10     5     6 ar  
    11     5     7 1   
    12     6    36 1   
    13     7     8 1   
    14     7     9 1   
    15     7    10 1   
    16     8    13 ar  
    17     8    18 ar  
    18     9    12 1   
    19     9    37 1   
    20     9    38 1   
    21    10    11 1   
    22    10    39 1   
    23    10    40 1   
    24    11    41 1   
    25    11    42 1   
    26    11    43 1   
    27    12    44 1   
    28    12    45 1   
    29    12    46 1   
    30    13    14 ar  
    31    13    47 1   
    32    14    15 ar  
    33    14    16 1   
    34    15    17 ar  
    35    15    30 1   
    36    16    48 1   
    37    16    49 1   
    38    16    50 1   
    39    17    18 ar  
    40    17    51 1   
    41    18    52 1   
    42    19    21 1   
    43    20    23 1   
    44    20    53 1   
    45    21    22 1   
    46    21    54 1   
    47    21    55 1   
    48    22    23 1   
    49    22    24 2   
    50    23    56 1   
    51    25    26 1   
    52    25    27 1   
    53    25    28 1   
    54    25    31 1   
    55    26    57 1   
    56    26    58 1   
    57    26    59 1   
    58    27    60 1   
    59    27    61 1   
    60    27    62 1   
    61    28    63 1   
    62    28    64 1   
    63    28    65 1   
    64    29    30 1   
    65    29    31 1   
    66    29    66 1   
    67    29    67 1   
    68    31    32 1   
    69    31    68 1   
    70    32    69 1   
    71    33    70 1   
    72    33    71 1   
    73    33    72 1   
@<TRIPOS>SUBSTRUCTURE
     1 0S4         1 TEMP              0 ****  ****    0 ROOT
