@<TRIPOS>MOLECULE
0S4
   72    73     1     0     0
SMALL
bcc


@<TRIPOS>ATOM
      1 C1          -3.1780    -0.4320     0.5950 ca         1 0S4      -0.215000
      2 C2          -4.2850     0.1560    -0.0010 ca         1 0S4       0.128100
      3 C3          -4.2060     1.4680    -0.4800 ca         1 0S4      -0.096300
      4 C4          -3.0050     2.1500    -0.3350 ca         1 0S4      -0.097000
      5 C5          -1.8720     1.5880     0.2550 ca         1 0S4      -0.092300
      6 C6          -1.9930     0.2820     0.7170 ca         1 0S4      -0.091000
      7 C7          -0.5960     2.3920     0.4910 c3         1 0S4       0.066600
      8 C8           0.6540     1.5360     0.2980 ca         1 0S4      -0.099300
      9 C9          -0.4700     3.6060    -0.4620 c3         1 0S4      -0.066900
     10 C10         -0.6890     2.9940     1.9170 c3         1 0S4      -0.066900
     11 C11         -0.7500     2.0220     3.0870 c3         1 0S4      -0.089600
     12 C12         -0.3560     3.3100    -1.9500 c3         1 0S4      -0.089600
     13 C13          0.7080     0.5510    -0.6930 ca         1 0S4      -0.093000
     14 C14          1.8440    -0.1920    -0.9670 ca         1 0S4      -0.106300
     15 C15          3.0020     0.0580    -0.2150 ca         1 0S4       0.139100
     16 C16          1.8490    -1.2380    -2.0420 c3         1 0S4      -0.033800
     17 C17          2.9860     1.0400     0.7660 ca         1 0S4      -0.221000
     18 C18          1.8230     1.7660     1.0100 ca         1 0S4      -0.094000
     19 O19         -5.4790    -0.4610    -0.1660 os         1 0S4      -0.292900
     20 O22         -8.5080    -3.9880     0.0150 oh         1 0S4      -0.385100
     21 C20         -5.6380    -1.7530     0.3480 c3         1 0S4       0.054400
     22 C21         -7.0990    -2.1270     0.1660 c          1 0S4       0.670100
     23 N23         -7.2650    -3.4390    -0.0810 ns         1 0S4      -0.457400
     24 O24         -8.0020    -1.3220     0.2460 o          1 0S4      -0.533100
     25 C25          7.7510    -1.1830     0.1290 c3         1 0S4      -0.076000
     26 C26          8.6850    -2.2360    -0.4730 c3         1 0S4      -0.086100
     27 C27          7.8480    -1.2300     1.6570 c3         1 0S4      -0.086100
     28 C28          8.2070     0.1940    -0.3650 c3         1 0S4      -0.086100
     29 C29          5.2860    -0.4780     0.1770 c3         1 0S4       0.106400
     30 O30          4.0750    -0.7010    -0.5180 os         1 0S4      -0.311900
     31 C31          6.3120    -1.4670    -0.3600 c3         1 0S4       0.150100
     32 O32          5.8970    -2.7910    -0.1050 oh         1 0S4      -0.579800
     33 C33         -5.3900     2.1130    -1.1390 c3         1 0S4      -0.036800
     34 H1          -3.2110    -1.4460     0.9710 ha         1 0S4       0.129000
     35 H2          -2.9710     3.1670    -0.7070 ha         1 0S4       0.134000
     36 H3          -1.1480    -0.2070     1.1840 ha         1 0S4       0.138000
     37 H4          -1.3120     4.2830    -0.2870 hc         1 0S4       0.038450
     38 H5           0.4160     4.1640    -0.1460 hc         1 0S4       0.038450
     39 H6           0.1510     3.6800     2.0620 hc         1 0S4       0.038450
     40 H7          -1.5810     3.6270     1.9370 hc         1 0S4       0.038450
     41 H8          -1.6660     1.4320     3.0810 hc         1 0S4       0.035700
     42 H9           0.0920     1.3300     3.0910 hc         1 0S4       0.035700
     43 H10         -0.7250     2.5740     4.0280 hc         1 0S4       0.035700
     44 H11         -1.1880     2.7110    -2.3210 hc         1 0S4       0.035700
     45 H12         -0.3500     4.2430    -2.5150 hc         1 0S4       0.035700
     46 H13          0.5660     2.7810    -2.1880 hc         1 0S4       0.035700
     47 H14         -0.1750     0.3510    -1.2890 ha         1 0S4       0.137000
     48 H15          2.5990    -1.0290    -2.8080 hc         1 0S4       0.043367
     49 H16          2.0730    -2.2290    -1.6440 hc         1 0S4       0.043367
     50 H17          0.8780    -1.2890    -2.5340 hc         1 0S4       0.043367
     51 H18          3.8650     1.2610     1.3570 ha         1 0S4       0.131000
     52 H19          1.8630     2.5270     1.7780 ha         1 0S4       0.129000
     53 H20         -8.8350    -4.0680    -0.8910 ho         1 0S4       0.411000
     54 H21         -4.9760    -2.4730    -0.1470 h1         1 0S4       0.050200
     55 H22         -5.4160    -1.7940     1.4220 h1         1 0S4       0.050200
     56 H23         -6.5060    -4.1020    -0.0110 hn         1 0S4       0.333500
     57 H24          8.4410    -3.2430    -0.1380 hc         1 0S4       0.037033
     58 H25          8.6390    -2.2230    -1.5640 hc         1 0S4       0.037033
     59 H26          9.7190    -2.0330    -0.1850 hc         1 0S4       0.037033
     60 H27          7.5530    -2.2000     2.0650 hc         1 0S4       0.037033
     61 H28          8.8780    -1.0590     1.9750 hc         1 0S4       0.037033
     62 H29          7.2330    -0.4640     2.1330 hc         1 0S4       0.037033
     63 H30          9.2690     0.3320    -0.1560 hc         1 0S4       0.037033
     64 H31          8.0690     0.2950    -1.4440 hc         1 0S4       0.037033
     65 H32          7.6760     1.0150     0.1180 hc         1 0S4       0.037033
     66 H33          5.6230     0.5530     0.0270 h1         1 0S4       0.037200
     67 H34          5.1390    -0.6220     1.2560 h1         1 0S4       0.037200
     68 H35          6.3210    -1.3740    -1.4520 h1         1 0S4       0.085700
     69 H36          5.8690    -2.9310     0.8470 ho         1 0S4       0.398000
     70 H37         -6.2530     2.1540    -0.4740 hc         1 0S4       0.045700
     71 H38         -5.1530     3.1320    -1.4420 hc         1 0S4       0.045700
     72 H39         -5.7020     1.5680    -2.0310 hc         1 0S4       0.045700
@<TRIPOS>BOND
     1     1     2 ar  
     2     1     6 ar  
     3     1    34 1   
     4     2     3 ar  
     5     2    19 1   
     6     3     4 ar  
     7     3    33 1   
     8     4     5 ar  
     9     4    35 1   
    10     5     6 ar  
    11     5     7 1   
    12     6    36 1   
    13     7     8 1   
    14     7     9 1   
    15     7    10 1   
    16     8    13 ar  
    17     8    18 ar  
    18     9    12 1   
    19     9    37 1   
    20     9    38 1   
    21    10    11 1   
    22    10    39 1   
    23    10    40 1   
    24    11    41 1   
    25    11    42 1   
    26    11    43 1   
    27    12    44 1   
    28    12    45 1   
    29    12    46 1   
    30    13    14 ar  
    31    13    47 1   
    32    14    15 ar  
    33    14    16 1   
    34    15    17 ar  
    35    15    30 1   
    36    16    48 1   
    37    16    49 1   
    38    16    50 1   
    39    17    18 ar  
    40    17    51 1   
    41    18    52 1   
    42    19    21 1   
    43    20    23 1   
    44    20    53 1   
    45    21    22 1   
    46    21    54 1   
    47    21    55 1   
    48    22    23 1   
    49    22    24 2   
    50    23    56 1   
    51    25    26 1   
    52    25    27 1   
    53    25    28 1   
    54    25    31 1   
    55    26    57 1   
    56    26    58 1   
    57    26    59 1   
    58    27    60 1   
    59    27    61 1   
    60    27    62 1   
    61    28    63 1   
    62    28    64 1   
    63    28    65 1   
    64    29    30 1   
    65    29    31 1   
    66    29    66 1   
    67    29    67 1   
    68    31    32 1   
    69    31    68 1   
    70    32    69 1   
    71    33    70 1   
    72    33    71 1   
    73    33    72 1   
@<TRIPOS>SUBSTRUCTURE
     1 0S4         1 TEMP              0 ****  ****    0 ROOT
