@<TRIPOS>MOLECULE
0S5
   59    61     1     0     0
SMALL
abcg2


@<TRIPOS>ATOM
      1 C26         17.5590    -7.0640     1.1300 ca         1 0S5      -0.084000
      2 C25         17.3100    -6.2220     2.2120 ca         1 0S5      -0.118000
      3 C27         18.7820    -7.7180     1.0250 ca         1 0S5      -0.118000
      4 C24         18.2820    -6.0370     3.1840 ca         1 0S5      -0.069000
      5 C28         19.7610    -7.5250     1.9920 ca         1 0S5      -0.069000
      6 C23         19.5180    -6.6810     3.0780 ca         1 0S5      -0.159600
      7 C29         29.1610    -2.1480     4.9640 c          1 0S5       0.585900
      8 C21         20.5080    -6.4610     4.1730 c          1 0S5       0.622700
      9 C18         22.9420    -6.7680     4.6390 c          1 0S5       0.613100
     10 C11         25.4890    -5.2000     4.6660 c          1 0S5       0.607100
     11 C8          25.1200    -5.5980     9.5550 c5         1 0S5      -0.077400
     12 C9          24.5480    -4.1790     9.8300 c5         1 0S5      -0.077400
     13 C15         26.0120    -8.7110     3.8920 c5         1 0S5      -0.094400
     14 C16         24.4850    -8.6230     3.8880 c5         1 0S5      -0.086400
     15 C7          26.0290    -5.4480     8.3240 c5         1 0S5      -0.073400
     16 C10         25.0490    -3.2950     8.6690 c5         1 0S5      -0.073400
     17 C14         26.4280    -7.5490     4.7910 c5         1 0S5       0.108000
     18 C17         24.2190    -7.1050     3.8700 c5         1 0S5       0.022700
     19 C6          25.4180    -4.2750     7.5470 c5         1 0S5      -0.077700
     20 C5          26.3100    -3.6620     6.4740 c3         1 0S5      -0.053400
     21 C3          27.5960    -3.9760     4.2930 c3         1 0S5       0.139000
     22 C4          26.7180    -4.6410     5.3680 c3         1 0S5      -0.150700
     23 N13         25.3980    -6.5340     4.5110 n          1 0S5      -0.403800
     24 N20         21.8360    -6.6720     3.8120 ns         1 0S5      -0.479500
     25 O30         30.2150    -1.8050     5.5080 o          1 0S5      -0.617100
     26 O22         20.1730    -6.1150     5.2900 o          1 0S5      -0.519100
     27 O19         22.9090    -6.6830     5.8470 o          1 0S5      -0.513100
     28 O12         24.5990    -4.4490     4.2530 o          1 0S5      -0.610100
     29 O1          29.6890    -4.3760     5.3590 oh         1 0S5      -0.460100
     30 H1          16.7990    -7.2130     0.3740 ha         1 0S5       0.117000
     31 H2          16.3590    -5.7120     2.2960 ha         1 0S5       0.119500
     32 H3          18.9730    -8.3850     0.1940 ha         1 0S5       0.119500
     33 H4          18.0970    -5.3900     4.0310 ha         1 0S5       0.123000
     34 H5          20.6960    -8.0640     1.9030 ha         1 0S5       0.123000
     35 H6          28.4250    -1.4540     4.5440 h5         1 0S5       0.042200
     36 H7          24.3070    -6.2920     9.3300 hc         1 0S5       0.042450
     37 H8          25.6570    -6.0040    10.4140 hc         1 0S5       0.042450
     38 H9          24.8750    -3.7890    10.7950 hc         1 0S5       0.042450
     39 H10         23.4580    -4.2070     9.8510 hc         1 0S5       0.042450
     40 H11         26.3790    -9.6670     4.2620 hc         1 0S5       0.059200
     41 H12         24.0830    -9.0530     4.8070 hc         1 0S5       0.064200
     42 H13         24.0190    -9.1210     3.0400 hc         1 0S5       0.064200
     43 H14         26.0900    -6.3670     7.7390 hc         1 0S5       0.038450
     44 H15         27.0470    -5.1830     8.6280 hc         1 0S5       0.038450
     45 H16         25.9490    -2.7490     8.9700 hc         1 0S5       0.038450
     46 H17         24.3110    -2.5550     8.3510 hc         1 0S5       0.038450
     47 H18         26.4020    -7.8350     5.8460 h1         1 0S5       0.059200
     48 H19         24.1390    -6.7330     2.8460 h1         1 0S5       0.065700
     49 H20         24.4900    -4.6250     7.0810 hc         1 0S5       0.075700
     50 H21         27.2210    -3.2840     6.9470 hc         1 0S5       0.050200
     51 H22         25.8050    -2.8050     6.0200 hc         1 0S5       0.050200
     52 H23         27.0610    -3.1470     3.8290 h1         1 0S5       0.065700
     53 H24         27.8520    -4.6980     3.5140 h1         1 0S5       0.065700
     54 H25         27.2900    -5.4520     5.8120 hc         1 0S5       0.077700
     55 H26         22.0190    -6.7830     2.8260 hn         1 0S5       0.316500
     56 H27         30.3900    -3.8150     5.7510 ho         1 0S5       0.478000
     57 H28         26.4010    -8.5560     2.8840 hc         1 0S5       0.059200
     58 H29         27.4190    -7.1730     4.5520 h1         1 0S5       0.059200
     59 N2          28.8160    -3.4280     4.8260 n          1 0S5      -0.293300
@<TRIPOS>BOND
     1     1     2 ar  
     2     1     3 ar  
     3     1    30 1   
     4     2     4 ar  
     5     2    31 1   
     6     3     5 ar  
     7     3    32 1   
     8     4     6 ar  
     9     4    33 1   
    10     5     6 ar  
    11     5    34 1   
    12     6     8 1   
    13     7    25 2   
    14     7    35 1   
    15     7    59 1   
    16     8    24 1   
    17     8    26 2   
    18     9    18 1   
    19     9    24 1   
    20     9    27 2   
    21    10    22 1   
    22    10    23 1   
    23    10    28 2   
    24    11    12 1   
    25    11    15 1   
    26    11    36 1   
    27    11    37 1   
    28    12    16 1   
    29    12    38 1   
    30    12    39 1   
    31    13    14 1   
    32    13    17 1   
    33    13    40 1   
    34    13    57 1   
    35    14    18 1   
    36    14    41 1   
    37    14    42 1   
    38    15    19 1   
    39    15    43 1   
    40    15    44 1   
    41    16    19 1   
    42    16    45 1   
    43    16    46 1   
    44    17    23 1   
    45    17    47 1   
    46    17    58 1   
    47    18    23 1   
    48    18    48 1   
    49    19    20 1   
    50    19    49 1   
    51    20    22 1   
    52    20    50 1   
    53    20    51 1   
    54    21    22 1   
    55    21    52 1   
    56    21    53 1   
    57    21    59 1   
    58    22    54 1   
    59    24    55 1   
    60    29    56 1   
    61    29    59 1   
@<TRIPOS>SUBSTRUCTURE
     1 0S5         1 TEMP              0 ****  ****    0 ROOT
