@<TRIPOS>MOLECULE
0S5
   59    61     1     0     0
SMALL
No Charge or Current Charge


@<TRIPOS>ATOM
      1 C26         17.5410    -7.3640     1.0150 ca         1 0S5      -0.084000
      2 C25         17.1040    -6.8010     2.2230 ca         1 0S5      -0.118000
      3 C27         18.9030    -7.6410     0.8290 ca         1 0S5      -0.118000
      4 C24         18.0260    -6.5150     3.2430 ca         1 0S5      -0.069000
      5 C28         19.8320    -7.3570     1.8460 ca         1 0S5      -0.069000
      6 C23         19.4050    -6.7870     3.0730 ca         1 0S5      -0.159600
      7 C29         29.4650    -2.1500     5.1210 c          1 0S5       0.585900
      8 C21         20.3690    -6.4630     4.2010 c          1 0S5       0.622700
      9 C18         22.7910    -6.5490     4.7710 c          1 0S5       0.613100
     10 C11         25.5770    -5.0190     4.6300 c          1 0S5       0.607100
     11 C8          24.9420    -5.6040     9.4100 c5         1 0S5      -0.077400
     12 C9          24.4710    -4.1510     9.7430 c5         1 0S5      -0.077400
     13 C15         25.8110    -8.6190     3.8270 c5         1 0S5      -0.094400
     14 C16         24.3090    -8.4890     4.1710 c5         1 0S5      -0.086400
     15 C7          26.0170    -5.4310     8.3000 c5         1 0S5      -0.073400
     16 C10         25.3220    -3.2370     8.8170 c5         1 0S5      -0.073400
     17 C14         26.4220    -7.4300     4.6090 c5         1 0S5       0.108000
     18 C17         24.0730    -6.9610     3.9750 c5         1 0S5       0.022700
     19 C6          25.5350    -4.1450     7.5810 c5         1 0S5      -0.077700
     20 C5          26.5160    -3.5640     6.5290 c3         1 0S5      -0.053400
     21 C3          27.7780    -3.8610     4.2930 c3         1 0S5       0.139000
     22 C4          26.8520    -4.5160     5.3430 c3         1 0S5      -0.150700
     23 N13         25.3550    -6.4080     4.4980 n          1 0S5      -0.403800
     24 N20         21.6930    -6.7330     3.9640 ns         1 0S5      -0.479500
     25 O30         30.5780    -1.8350     5.5350 o          1 0S5      -0.617100
     26 O22         19.9790    -5.9890     5.2580 o          1 0S5      -0.519100
     27 O19         22.7450    -6.1210     5.9160 o          1 0S5      -0.513100
     28 O12         24.7560    -4.2240     4.1900 o          1 0S5      -0.610100
     29 O1          30.0810    -4.5570     4.9210 oh         1 0S5      -0.460100
     30 H1          16.8250    -7.5860     0.2250 ha         1 0S5       0.117000
     31 H2          16.0480    -6.5860     2.3700 ha         1 0S5       0.119500
     32 H3          19.2430    -8.0790    -0.1080 ha         1 0S5       0.119500
     33 H4          17.6620    -6.0790     4.1710 ha         1 0S5       0.123000
     34 H5          20.8760    -7.5900     1.6580 ha         1 0S5       0.123000
     35 H6          28.6390    -1.4320     4.9540 h5         1 0S5       0.042200
     36 H7          24.1010    -6.2080     9.0500 hc         1 0S5       0.042450
     37 H8          25.3490    -6.1180    10.2890 hc         1 0S5       0.042450
     38 H9          24.6140    -3.9010    10.8000 hc         1 0S5       0.042450
     39 H10         23.4010    -4.0350     9.5320 hc         1 0S5       0.042450
     40 H11         26.2370    -9.5820     4.1300 hc         1 0S5       0.059200
     41 H12         24.1180    -8.7990     5.2070 hc         1 0S5       0.064200
     42 H13         23.6710    -9.1020     3.5240 hc         1 0S5       0.064200
     43 H14         26.0560    -6.3000     7.6340 hc         1 0S5       0.038450
     44 H15         27.0190    -5.3040     8.7290 hc         1 0S5       0.038450
     45 H16         26.2740    -2.9650     9.2900 hc         1 0S5       0.038450
     46 H17         24.8050    -2.3040     8.5680 hc         1 0S5       0.038450
     47 H18         26.5980    -7.6920     5.6610 h1         1 0S5       0.059200
     48 H19         23.9530    -6.6990     2.9150 h1         1 0S5       0.065700
     49 H20         24.5780    -4.3190     7.0730 hc         1 0S5       0.075700
     50 H21         27.4510    -3.2840     7.0320 hc         1 0S5       0.050200
     51 H22         26.0970    -2.6320     6.1290 hc         1 0S5       0.050200
     52 H23         27.2890    -2.9680     3.8800 h1         1 0S5       0.065700
     53 H24         27.9240    -4.5620     3.4590 h1         1 0S5       0.065700
     54 H25         27.3970    -5.3700     5.7540 hc         1 0S5       0.077700
     55 H26         21.8920    -7.1080     3.0520 hn         1 0S5       0.316500
     56 H27         30.0670    -4.8340     5.8670 ho         1 0S5       0.478000
     57 H28         25.9800    -8.5100     2.7490 hc         1 0S5       0.059200
     58 H29         27.3710    -7.1010     4.1650 h1         1 0S5       0.059200
     59 N2          29.1100    -3.4890     4.8170 n          1 0S5      -0.293300
@<TRIPOS>BOND
     1     1     2 ar  
     2     1     3 ar  
     3     1    30 1   
     4     2     4 ar  
     5     2    31 1   
     6     3     5 ar  
     7     3    32 1   
     8     4     6 ar  
     9     4    33 1   
    10     5     6 ar  
    11     5    34 1   
    12     6     8 1   
    13     7    25 2   
    14     7    35 1   
    15     7    59 1   
    16     8    24 1   
    17     8    26 2   
    18     9    18 1   
    19     9    24 1   
    20     9    27 2   
    21    10    22 1   
    22    10    23 1   
    23    10    28 2   
    24    11    12 1   
    25    11    15 1   
    26    11    36 1   
    27    11    37 1   
    28    12    16 1   
    29    12    38 1   
    30    12    39 1   
    31    13    14 1   
    32    13    17 1   
    33    13    40 1   
    34    13    57 1   
    35    14    18 1   
    36    14    41 1   
    37    14    42 1   
    38    15    19 1   
    39    15    43 1   
    40    15    44 1   
    41    16    19 1   
    42    16    45 1   
    43    16    46 1   
    44    17    23 1   
    45    17    47 1   
    46    17    58 1   
    47    18    23 1   
    48    18    48 1   
    49    19    20 1   
    50    19    49 1   
    51    20    22 1   
    52    20    50 1   
    53    20    51 1   
    54    21    22 1   
    55    21    52 1   
    56    21    53 1   
    57    21    59 1   
    58    22    54 1   
    59    24    55 1   
    60    29    56 1   
    61    29    59 1   
@<TRIPOS>SUBSTRUCTURE
     1 0S5         1 TEMP              0 ****  ****    0 ROOT
