@<TRIPOS>MOLECULE
0S6
   47    50     1     0     0
SMALL
No Charge or Current Charge


@<TRIPOS>ATOM
      1 Cl1         29.4730    47.9830    -6.9250 cl         1 0S6      -0.207000
      2 C15         28.6450    48.8920    -5.6680 ca         1 0S6       0.135000
      3 C16         29.1020    48.8340    -4.3440 ca         1 0S6      -0.112000
      4 C17         28.4410    49.5590    -3.3370 ca         1 0S6      -0.067500
      5 C13         27.5240    49.6700    -5.9880 ca         1 0S6      -0.112000
      6 C14         26.8600    50.3970    -4.9850 ca         1 0S6      -0.067500
      7 C12         27.3160    50.3630    -3.6440 ca         1 0S6      -0.134900
      8 C8          26.5920    51.1240    -2.5660 ce         1 0S6       0.554500
      9 C5          27.1290    51.1100    -1.1950 cc         1 0S6      -0.203900
     10 C4          28.3290    51.7940    -0.8070 cc         1 0S6      -0.059300
     11 C7          29.1140    52.6220    -1.7980 c3         1 0S6      -0.032800
     12 C2          28.6690    51.6080     0.5210 cd         1 0S6      -0.200300
     13 C6          29.8660    52.1690     1.2460 c3         1 0S6      -0.020800
     14 S1          27.5090    50.5870     1.3940 ss         1 0S6       0.235000
     15 C3          26.6020    50.4550    -0.1090 cd         1 0S6      -0.118200
     16 N9          25.3140    49.9130    -0.1940 na         1 0S6      -0.265800
     17 C11         24.7940    48.8580     0.5210 cc         1 0S6       0.415800
     18 C28         25.5380    47.9490     1.4580 c3         1 0S6      -0.128400
     19 N27         23.5250    48.7080     0.1730 nd         1 0S6      -0.351000
     20 N21         23.2040    49.6980    -0.7340 nd         1 0S6      -0.338000
     21 C19         24.2900    50.4280    -0.9550 cc         1 0S6       0.393800
     22 N10         25.4230    51.6340    -2.8130 n2         1 0S6      -0.571900
     23 C20         24.3760    51.7170    -1.7740 c3         1 0S6       0.104200
     24 C22         23.0390    52.1220    -2.4410 c3         1 0S6      -0.114400
     25 C23         23.1410    53.4860    -3.1180 c          1 0S6       0.595100
     26 O24         23.1200    54.5450    -2.5040 o          1 0S6      -0.496000
     27 O25         23.1110    53.3860    -4.4860 os         1 0S6      -0.444100
     28 C26         23.1630    54.6030    -5.2550 c3         1 0S6       0.152900
     29 H1          29.9660    48.2240    -4.0960 ha         1 0S6       0.133000
     30 H2          28.8100    49.4830    -2.3160 ha         1 0S6       0.130500
     31 H3          27.1680    49.7100    -7.0150 ha         1 0S6       0.133000
     32 H4          25.9920    50.9930    -5.2590 ha         1 0S6       0.130500
     33 H6          29.7090    53.3910    -1.2920 hc         1 0S6       0.052033
     34 H7          29.8020    51.9940    -2.3750 hc         1 0S6       0.052033
     35 H8          28.4530    53.1400    -2.5030 hc         1 0S6       0.052033
     36 H9          29.9580    51.7490     2.2550 hc         1 0S6       0.052033
     37 H10         30.7950    51.9430     0.7080 hc         1 0S6       0.052033
     38 H11         29.7910    53.2590     1.3450 hc         1 0S6       0.052033
     39 H12         24.9950    47.0070     1.5990 hc         1 0S6       0.065367
     40 H13         26.5300    47.7050     1.0610 hc         1 0S6       0.065367
     41 H14         25.6580    48.4180     2.4400 hc         1 0S6       0.065367
     42 H17         24.6370    52.5130    -1.0620 h1         1 0S6       0.084700
     43 H18         22.2630    52.1820    -1.6710 hc         1 0S6       0.096200
     44 H19         22.7770    51.3600    -3.1850 hc         1 0S6       0.096200
     45 H20         23.1390    54.3770    -6.3280 h1         1 0S6       0.050033
     46 H21         22.3060    55.2490    -5.0240 h1         1 0S6       0.050033
     47 H22         24.0850    55.1600    -5.0440 h1         1 0S6       0.050033
@<TRIPOS>BOND
     1     1     2 1   
     2     2     3 ar  
     3     2     5 ar  
     4     3     4 ar  
     5     3    29 1   
     6     4     7 ar  
     7     4    30 1   
     8     5     6 ar  
     9     5    31 1   
    10     6     7 ar  
    11     6    32 1   
    12     7     8 1   
    13     8     9 1   
    14     8    22 2   
    15     9    10 1   
    16     9    15 2   
    17    10    11 1   
    18    10    12 2   
    19    11    33 1   
    20    11    34 1   
    21    11    35 1   
    22    12    13 1   
    23    12    14 1   
    24    13    36 1   
    25    13    37 1   
    26    13    38 1   
    27    14    15 1   
    28    15    16 1   
    29    16    17 1   
    30    16    21 1   
    31    17    18 1   
    32    17    19 2   
    33    18    39 1   
    34    18    40 1   
    35    18    41 1   
    36    19    20 1   
    37    20    21 2   
    38    21    23 1   
    39    22    23 1   
    40    23    24 1   
    41    23    42 1   
    42    24    25 1   
    43    24    43 1   
    44    24    44 1   
    45    25    26 2   
    46    25    27 1   
    47    27    28 1   
    48    28    45 1   
    49    28    46 1   
    50    28    47 1   
@<TRIPOS>SUBSTRUCTURE
     1 0S6         1 TEMP              0 ****  ****    0 ROOT
