@<TRIPOS>MOLECULE
0S6
   47    50     1     0     0
SMALL
abcg2


@<TRIPOS>ATOM
      1 CL1         30.1020    48.7760    -6.9170 cl         1 0S6      -0.207000
      2 C15         29.0570    49.3740    -5.6480 ca         1 0S6       0.135000
      3 C16         29.2430    48.9260    -4.3470 ca         1 0S6      -0.112000
      4 C17         28.4210    49.4180    -3.3430 ca         1 0S6      -0.067500
      5 C13         28.0620    50.2920    -5.9620 ca         1 0S6      -0.112000
      6 C14         27.2390    50.7640    -4.9510 ca         1 0S6      -0.067500
      7 C12         27.4100    50.3370    -3.6320 ca         1 0S6      -0.134900
      8 C8          26.5100    50.8360    -2.5610 ce         1 0S6       0.554500
      9 C5          27.0780    51.0060    -1.2080 cc         1 0S6      -0.203900
     10 C4          28.3530    51.5970    -0.8960 cc         1 0S6      -0.059300
     11 C7          29.2640    52.2460    -1.8970 c3         1 0S6      -0.032800
     12 C2          28.6370    51.5490     0.4420 cd         1 0S6      -0.200300
     13 C6          29.8630    52.0400     1.1460 c3         1 0S6      -0.020800
     14 S1          27.3620    50.8040     1.3490 ss         1 0S6       0.235000
     15 C3          26.4360    50.5440    -0.0790 cd         1 0S6      -0.118200
     16 N9          25.1470    50.0020    -0.0600 na         1 0S6      -0.265800
     17 C11         24.6050    48.9730     0.6800 cc         1 0S6       0.415800
     18 C28         25.3420    48.1600     1.6760 c3         1 0S6      -0.128400
     19 N27         23.3460    48.8280     0.3490 nd         1 0S6      -0.351000
     20 N21         23.0400    49.7660    -0.6270 nd         1 0S6      -0.338000
     21 C19         24.1170    50.4600    -0.8550 cc         1 0S6       0.393800
     22 N10         25.2820    51.0420    -2.8660 n2         1 0S6      -0.571900
     23 C20         24.3720    51.5540    -1.8350 c3         1 0S6       0.104200
     24 C22         23.0950    52.0530    -2.4900 c3         1 0S6      -0.114400
     25 C23         23.3590    53.2560    -3.3620 c          1 0S6       0.595100
     26 O24         24.2870    54.0220    -3.2280 o          1 0S6      -0.496000
     27 O25         22.4130    53.3980    -4.2960 os         1 0S6      -0.444100
     28 C26         22.5200    54.5550    -5.1530 c3         1 0S6       0.152900
     29 H1          30.0190    48.2080    -4.1220 ha         1 0S6       0.133000
     30 H2          28.5650    49.0760    -2.3270 ha         1 0S6       0.130500
     31 H3          27.9380    50.6350    -6.9800 ha         1 0S6       0.133000
     32 H4          26.4640    51.4820    -5.1800 ha         1 0S6       0.130500
     33 H6          29.8440    53.0390    -1.4270 hc         1 0S6       0.052033
     34 H7          29.9680    51.5290    -2.3260 hc         1 0S6       0.052033
     35 H8          28.6970    52.6800    -2.7200 hc         1 0S6       0.052033
     36 H9          29.7730    51.9330     2.2260 hc         1 0S6       0.052033
     37 H10         30.7460    51.4840     0.8230 hc         1 0S6       0.052033
     38 H11         30.0370    53.0950     0.9250 hc         1 0S6       0.052033
     39 H12         24.7170    47.3210     1.9730 hc         1 0S6       0.065367
     40 H13         26.2760    47.7820     1.2570 hc         1 0S6       0.065367
     41 H14         25.5840    48.7430     2.5670 hc         1 0S6       0.065367
     42 H17         24.8490    52.3810    -1.2960 h1         1 0S6       0.084700
     43 H18         22.3730    52.3570    -1.7280 hc         1 0S6       0.096200
     44 H19         22.6290    51.2670    -3.0820 hc         1 0S6       0.096200
     45 H20         21.6740    54.4920    -5.8310 h1         1 0S6       0.050033
     46 H21         22.4690    55.4670    -4.5610 h1         1 0S6       0.050033
     47 H22         23.4570    54.5260    -5.7070 h1         1 0S6       0.050033
@<TRIPOS>BOND
     1     1     2 1   
     2     2     3 ar  
     3     2     5 ar  
     4     3     4 ar  
     5     3    29 1   
     6     4     7 ar  
     7     4    30 1   
     8     5     6 ar  
     9     5    31 1   
    10     6     7 ar  
    11     6    32 1   
    12     7     8 1   
    13     8     9 1   
    14     8    22 2   
    15     9    10 1   
    16     9    15 2   
    17    10    11 1   
    18    10    12 2   
    19    11    33 1   
    20    11    34 1   
    21    11    35 1   
    22    12    13 1   
    23    12    14 1   
    24    13    36 1   
    25    13    37 1   
    26    13    38 1   
    27    14    15 1   
    28    15    16 1   
    29    16    17 1   
    30    16    21 1   
    31    17    18 1   
    32    17    19 2   
    33    18    39 1   
    34    18    40 1   
    35    18    41 1   
    36    19    20 1   
    37    20    21 2   
    38    21    23 1   
    39    22    23 1   
    40    23    24 1   
    41    23    42 1   
    42    24    25 1   
    43    24    43 1   
    44    24    44 1   
    45    25    26 2   
    46    25    27 1   
    47    27    28 1   
    48    28    45 1   
    49    28    46 1   
    50    28    47 1   
@<TRIPOS>SUBSTRUCTURE
     1 0S6         1 TEMP              0 ****  ****    0 ROOT
