@<TRIPOS>MOLECULE
0S7
   39    41     1     0     0
SMALL
No Charge or Current Charge


@<TRIPOS>ATOM
      1 C1          -2.6990     5.4630    -0.0390 c3         1 0S7      -0.121400
      2 C2          -3.2610     4.0710    -0.0270 cc         1 0S7       0.267300
      3 C3          -2.4440     2.9320    -0.0140 cc         1 0S7      -0.228000
      4 C4          -3.2740     1.8600    -0.0060 cd         1 0S7       0.240000
      5 N5          -2.9920     0.5140     0.0080 nu         1 0S7      -0.924900
      6 C6          -1.8180    -0.2310     0.0170 ca         1 0S7       0.463900
      7 N7          -0.6450     0.4190     0.0130 nb         1 0S7      -0.317000
      8 C8           0.4550    -0.3420     0.0230 ca         1 0S7       0.434900
      9 N9           1.6500     0.3560     0.0190 nu         1 0S7      -0.922100
     10 C10          3.0130    -0.2050     0.0330 c3         1 0S7       0.242800
     11 C11          4.0710     0.9160     0.0200 c3         1 0S7      -0.046100
     12 C12          5.4920     0.3650     0.0290 ca         1 0S7      -0.137300
     13 C13          6.1130     0.0020     1.2380 ca         1 0S7      -0.068000
     14 C14          7.4210    -0.5070     1.1880 ca         1 0S7      -0.161000
     15 C15          8.0610    -0.6360    -0.0570 ca         1 0S7       0.337900
     16 N16          7.4720    -0.2910    -1.2250 nb         1 0S7      -0.662000
     17 C17          6.2110     0.1990    -1.1750 ca         1 0S7       0.342900
     18 N18          0.5150    -1.6850     0.0360 nb         1 0S7      -0.271000
     19 C19         -0.6650    -2.3330     0.0400 ca         1 0S7       0.209900
     20 C20         -1.8820    -1.6330     0.0310 ca         1 0S7      -0.271900
     21 Br1         -3.5480    -2.5910     0.0360 br         1 0S7      -0.082100
     22 N22         -4.5630     2.4010    -0.0130 na         1 0S7      -0.049200
     23 N24         -4.5530     3.8010    -0.0270 nd         1 0S7      -0.519800
     24 H1          -2.0850     5.6250    -0.9330 hc         1 0S7       0.046700
     25 H2          -3.4970     6.2160    -0.0360 hc         1 0S7       0.046700
     26 H3          -2.0700     5.6350     0.8420 hc         1 0S7       0.046700
     27 H4          -1.3630     2.9410    -0.0120 ha         1 0S7       0.162000
     28 H5          -3.8170    -0.0860     0.0120 hn         1 0S7       0.513000
     29 H6           1.5530     1.3710     0.0120 hn         1 0S7       0.509000
     30 H7           3.1570    -0.8230     0.9310 h1         1 0S7       0.059700
     31 H8           3.1640    -0.8500    -0.8440 h1         1 0S7       0.059700
     32 H9           3.9170     1.5450    -0.8660 hc         1 0S7       0.055700
     33 H10          3.9180     1.5650     0.8910 hc         1 0S7       0.055700
     34 H11          5.5970     0.1100     2.1900 ha         1 0S7       0.119000
     35 H12          7.9380    -0.7990     2.0970 ha         1 0S7       0.125000
     36 H13          9.0750    -1.0280    -0.1210 h4         1 0S7       0.021100
     37 H14          5.7610     0.4660    -2.1310 h4         1 0S7       0.019100
     38 H15         -0.6310    -3.4210     0.0500 h4         1 0S7       0.034100
     39 H16         -5.4300     1.8730    -0.0100 hn         1 0S7       0.368000
@<TRIPOS>BOND
     1     1     2 1   
     2     1    24 1   
     3     1    25 1   
     4     1    26 1   
     5     2     3 1   
     6     2    23 2   
     7     3     4 2   
     8     3    27 1   
     9     4     5 1   
    10     4    22 1   
    11     5     6 1   
    12     5    28 1   
    13     6     7 ar  
    14     6    20 ar  
    15     7     8 ar  
    16     8     9 1   
    17     8    18 ar  
    18     9    10 1   
    19     9    29 1   
    20    10    11 1   
    21    10    30 1   
    22    10    31 1   
    23    11    12 1   
    24    11    32 1   
    25    11    33 1   
    26    12    13 ar  
    27    12    17 ar  
    28    13    14 ar  
    29    13    34 1   
    30    14    15 ar  
    31    14    35 1   
    32    15    16 ar  
    33    15    36 1   
    34    16    17 ar  
    35    17    37 1   
    36    18    19 ar  
    37    19    20 ar  
    38    19    38 1   
    39    20    21 1   
    40    22    23 1   
    41    22    39 1   
@<TRIPOS>SUBSTRUCTURE
     1 0S7         1 TEMP              0 ****  ****    0 ROOT
