@<TRIPOS>MOLECULE
0S7
   39    41     1     0     0
SMALL
bcc


@<TRIPOS>ATOM
      1 C1          -2.6600     5.4460    -0.0070 c3         1 0S7      -0.121400
      2 C2          -3.0790     4.0160    -0.0030 cc         1 0S7       0.332600
      3 C3          -2.2380     2.8820     0.0090 cc         1 0S7      -0.311300
      4 C4          -3.1110     1.8130    -0.0050 cd         1 0S7       0.152300
      5 N5          -2.9640     0.4410     0.0010 nu         1 0S7      -0.731300
      6 C6          -1.7980    -0.2510     0.0040 ca         1 0S7       0.792200
      7 N7          -0.6640     0.4190     0.0000 nb         1 0S7      -0.843000
      8 C8           0.4830    -0.2700     0.0060 ca         1 0S7       0.960900
      9 N9           1.6130     0.4530    -0.0010 nu         1 0S7      -0.866900
     10 C10          2.9370    -0.1240     0.0140 c3         1 0S7       0.242800
     11 C11          3.9860     0.9830     0.0050 c3         1 0S7      -0.046100
     12 C12          5.3700     0.4040     0.0350 ca         1 0S7      -0.202600
     13 C13          6.0090     0.0890     1.2290 ca         1 0S7      -0.086000
     14 C14          7.2720    -0.4810     1.1950 ca         1 0S7      -0.244300
     15 C15          7.8560    -0.7220    -0.0400 ca         1 0S7       0.403200
     16 N16          7.2620    -0.4280    -1.1910 nb         1 0S7      -0.662000
     17 C17          6.0540     0.1190    -1.1430 ca         1 0S7       0.408200
     18 N18          0.5940    -1.6000     0.0170 nb         1 0S7      -0.797000
     19 C19         -0.5490    -2.2720     0.0200 ca         1 0S7       0.538200
     20 C20         -1.7850    -1.6660     0.0130 ca         1 0S7      -0.402500
     21 BR1         -3.3540    -2.7020     0.0180 br         1 0S7      -0.082100
     22 N22         -4.3530     2.3360    -0.0220 na         1 0S7      -0.049600
     23 N24         -4.3510     3.6740    -0.0210 nd         1 0S7      -0.519800
     24 H1          -2.1580     5.7090    -0.9390 hc         1 0S7       0.046700
     25 H2          -3.5210     6.1030     0.1070 hc         1 0S7       0.046700
     26 H3          -1.9620     5.6560     0.8040 hc         1 0S7       0.046700
     27 H4          -1.1660     2.8550     0.0240 ha         1 0S7       0.180000
     28 H5          -3.8210    -0.0920     0.0020 hn         1 0S7       0.457800
     29 H6           1.5130     1.4540    -0.0060 hn         1 0S7       0.453800
     30 H7           3.0680    -0.7510     0.9000 h1         1 0S7       0.059700
     31 H8           3.0790    -0.7740    -0.8540 h1         1 0S7       0.059700
     32 H9           3.8600     1.5990    -0.8900 hc         1 0S7       0.055700
     33 H10          3.8380     1.6370     0.8680 hc         1 0S7       0.055700
     34 H11          5.5270     0.2930     2.1780 ha         1 0S7       0.137000
     35 H12          7.7970    -0.7320     2.1060 ha         1 0S7       0.143000
     36 H13          8.8420    -1.1690    -0.1020 h4         1 0S7       0.021100
     37 H14          5.5950     0.3550    -2.0990 h4         1 0S7       0.019100
     38 H15         -0.4730    -3.3540     0.0280 h4         1 0S7       0.034100
     39 H16         -5.2290     1.8370    -0.0410 hn         1 0S7       0.317700
@<TRIPOS>BOND
     1     1     2 1   
     2     1    24 1   
     3     1    25 1   
     4     1    26 1   
     5     2     3 1   
     6     2    23 2   
     7     3     4 2   
     8     3    27 1   
     9     4     5 1   
    10     4    22 1   
    11     5     6 1   
    12     5    28 1   
    13     6     7 ar  
    14     6    20 ar  
    15     7     8 ar  
    16     8     9 1   
    17     8    18 ar  
    18     9    10 1   
    19     9    29 1   
    20    10    11 1   
    21    10    30 1   
    22    10    31 1   
    23    11    12 1   
    24    11    32 1   
    25    11    33 1   
    26    12    13 ar  
    27    12    17 ar  
    28    13    14 ar  
    29    13    34 1   
    30    14    15 ar  
    31    14    35 1   
    32    15    16 ar  
    33    15    36 1   
    34    16    17 ar  
    35    17    37 1   
    36    18    19 ar  
    37    19    20 ar  
    38    19    38 1   
    39    20    21 1   
    40    22    23 1   
    41    22    39 1   
@<TRIPOS>SUBSTRUCTURE
     1 0S7         1 TEMP              0 ****  ****    0 ROOT
