@<TRIPOS>MOLECULE
0S8
   46    48     1     0     0
SMALL
No Charge or Current Charge


@<TRIPOS>ATOM
      1 C1           6.9640     4.7790     0.4100 c3         1 0S8       0.147900
      2 O2           5.7450     4.2510    -0.1390 os         1 0S8      -0.452000
      3 C3           4.5600     4.6210     0.5840 c3         1 0S8       0.157600
      4 C4           3.3560     3.9780    -0.1300 c3         1 0S8      -0.076400
      5 C5           2.0070     4.2980     0.5530 c3         1 0S8      -0.100700
      6 C6           0.8330     3.6690    -0.1480 cc         1 0S8       0.267300
      7 C7           0.4590     2.3340     0.0580 cc         1 0S8      -0.227000
      8 C8          -0.6210     2.1080    -0.7280 cd         1 0S8       0.241000
      9 N9          -1.3720     0.9690    -0.9050 nu         1 0S8      -0.923900
     10 C10         -1.3240    -0.3170    -0.3770 ca         1 0S8       0.461900
     11 N11         -0.3720    -0.6050     0.5220 nb         1 0S8      -0.310000
     12 C12         -0.3650    -1.8550     1.0010 ca         1 0S8       0.435900
     13 N13          0.6320    -2.1220     1.9250 nu         1 0S8      -0.915100
     14 C14          0.9760    -3.4350     2.5320 c3         1 0S8       0.200500
     15 C15          1.4740    -4.4310     1.5070 cc         1 0S8       0.139300
     16 C16          2.2140    -4.2790     0.3750 cd         1 0S8      -0.240000
     17 C17          2.3570    -5.5630    -0.1740 cd         1 0S8       0.275300
     18 C18          3.0900    -5.9220    -1.4340 c3         1 0S8      -0.132400
     19 N19          1.7570    -6.4920     0.5490 nc         1 0S8      -0.359300
     20 O20          1.1740    -5.7640     1.6550 os         1 0S8      -0.054700
     21 N21         -1.2110    -2.8510     0.6820 nb         1 0S8      -0.260000
     22 C22         -2.1650    -2.5560    -0.2200 ca         1 0S8       0.211900
     23 C23         -2.2620    -1.2770    -0.7880 ca         1 0S8      -0.262900
     24 Br1         -3.6380    -0.8920    -2.0740 br         1 0S8      -0.078100
     25 N25         -0.8550     3.3220    -1.3800 na         1 0S8      -0.048200
     26 N27          0.0670     4.3100    -1.0120 nd         1 0S8      -0.513800
     27 H1           7.1140     4.4260     1.4380 h1         1 0S8       0.026367
     28 H2           7.8230     4.4570    -0.1920 h1         1 0S8       0.026367
     29 H3           6.9440     5.8770     0.4180 h1         1 0S8       0.026367
     30 H4           4.6090     4.2600     1.6200 h1         1 0S8       0.015700
     31 H5           4.4390     5.7120     0.6000 h1         1 0S8       0.015700
     32 H6           3.3250     4.3300    -1.1690 hc         1 0S8       0.064200
     33 H7           3.4960     2.8910    -0.1610 hc         1 0S8       0.064200
     34 H8           2.0380     3.9510     1.5930 hc         1 0S8       0.048200
     35 H9           1.8730     5.3860     0.5940 hc         1 0S8       0.048200
     36 H10          0.9590     1.6420     0.7230 ha         1 0S8       0.162000
     37 H11         -2.1380     1.0730    -1.5720 hn         1 0S8       0.514000
     38 H12          1.2450    -1.3310     2.1300 hn         1 0S8       0.509000
     39 H13          1.7610    -3.3080     3.2910 h1         1 0S8       0.085200
     40 H14          0.1000    -3.8590     3.0420 h1         1 0S8       0.085200
     41 H15          2.6050    -3.3510    -0.0230 ha         1 0S8       0.151000
     42 H16          3.9060    -6.6250    -1.2260 hc         1 0S8       0.056700
     43 H17          2.4160    -6.3900    -2.1610 hc         1 0S8       0.056700
     44 H18          3.5250    -5.0320    -1.9040 hc         1 0S8       0.056700
     45 H19         -2.8550    -3.3550    -0.4870 h4         1 0S8       0.036100
     46 H20         -1.5960     3.5060    -2.0490 hn         1 0S8       0.369000
@<TRIPOS>BOND
     1     1     2 1   
     2     1    27 1   
     3     1    28 1   
     4     1    29 1   
     5     2     3 1   
     6     3     4 1   
     7     3    30 1   
     8     3    31 1   
     9     4     5 1   
    10     4    32 1   
    11     4    33 1   
    12     5     6 1   
    13     5    34 1   
    14     5    35 1   
    15     6     7 1   
    16     6    26 2   
    17     7     8 2   
    18     7    36 1   
    19     8     9 1   
    20     8    25 1   
    21     9    10 1   
    22     9    37 1   
    23    10    11 ar  
    24    10    23 ar  
    25    11    12 ar  
    26    12    13 1   
    27    12    21 ar  
    28    13    14 1   
    29    13    38 1   
    30    14    15 1   
    31    14    39 1   
    32    14    40 1   
    33    15    16 2   
    34    15    20 1   
    35    16    17 1   
    36    16    41 1   
    37    17    18 1   
    38    17    19 2   
    39    18    42 1   
    40    18    43 1   
    41    18    44 1   
    42    19    20 1   
    43    21    22 ar  
    44    22    23 ar  
    45    22    45 1   
    46    23    24 1   
    47    25    26 1   
    48    25    46 1   
@<TRIPOS>SUBSTRUCTURE
     1 0S8         1 TEMP              0 ****  ****    0 ROOT
