@<TRIPOS>MOLECULE
0S8
   46    48     1     0     0
SMALL
abcg2


@<TRIPOS>ATOM
      1 C1           6.4420     6.8080     0.2220 c3         1 0S8       0.147900
      2 O2           5.2100     6.3780    -0.2940 os         1 0S8      -0.452000
      3 C3           4.7580     5.1880     0.3030 c3         1 0S8       0.157600
      4 C4           3.4320     4.7880    -0.3130 c3         1 0S8      -0.076400
      5 C5           2.9200     3.4880     0.2930 c3         1 0S8      -0.100700
      6 C6           1.5950     3.0420    -0.2370 cc         1 0S8       0.267300
      7 C7           0.9490     1.8160     0.0370 cc         1 0S8      -0.227000
      8 C8          -0.2380     1.8950    -0.6610 cd         1 0S8       0.241000
      9 N9          -1.3330     1.0680    -0.8170 nu         1 0S8      -0.923900
     10 C10         -1.4840    -0.1800    -0.3120 ca         1 0S8       0.461900
     11 N11         -0.4810    -0.7180     0.3560 nb         1 0S8      -0.310000
     12 C12         -0.6350    -1.9460     0.8560 ca         1 0S8       0.435900
     13 N13          0.4160    -2.4330     1.5450 nu         1 0S8      -0.915100
     14 C14          0.4920    -3.7690     2.0710 c3         1 0S8       0.200500
     15 C15          1.1150    -4.7340     1.1170 cc         1 0S8       0.139300
     16 C16          2.2030    -5.5320     1.2010 cd         1 0S8      -0.240000
     17 C17          2.2440    -6.1860    -0.0600 cd         1 0S8       0.275300
     18 C18          3.2380    -7.1800    -0.5420 c3         1 0S8      -0.132400
     19 N19          1.2580    -5.7930    -0.8140 nc         1 0S8      -0.359300
     20 O20          0.5460    -4.8870    -0.0810 os         1 0S8      -0.054700
     21 N21         -1.7280    -2.6990     0.7490 nb         1 0S8      -0.260000
     22 C22         -2.7360    -2.1590     0.0780 ca         1 0S8       0.211900
     23 C23         -2.6850    -0.9060    -0.4870 ca         1 0S8      -0.262900
     24 BR1         -4.1620    -0.2230    -1.4270 br         1 0S8      -0.078100
     25 N25         -0.2350     3.0910    -1.2820 na         1 0S8      -0.048200
     26 N27          0.8710     3.8000    -1.0330 nd         1 0S8      -0.513800
     27 H1           7.2320     6.0600     0.0810 h1         1 0S8       0.026367
     28 H2           6.7320     7.7170    -0.3040 h1         1 0S8       0.026367
     29 H3           6.3850     7.0340     1.2940 h1         1 0S8       0.026367
     30 H4           5.4950     4.3830     0.1660 h1         1 0S8       0.015700
     31 H5           4.6410     5.3220     1.3900 h1         1 0S8       0.015700
     32 H6           2.7010     5.5860    -0.1570 hc         1 0S8       0.064200
     33 H7           3.5510     4.6730    -1.3930 hc         1 0S8       0.064200
     34 H8           3.6520     2.6910     0.1300 hc         1 0S8       0.048200
     35 H9           2.8440     3.5950     1.3800 hc         1 0S8       0.048200
     36 H10          1.3020     1.0080     0.6480 ha         1 0S8       0.162000
     37 H11         -2.1040     1.4540    -1.3410 hn         1 0S8       0.514000
     38 H12          1.2670    -1.8940     1.5120 hn         1 0S8       0.509000
     39 H13          1.0930    -3.7570     2.9800 h1         1 0S8       0.085200
     40 H14         -0.5070    -4.1040     2.3480 h1         1 0S8       0.085200
     41 H15          2.8840    -5.6430     2.0280 ha         1 0S8       0.151000
     42 H16          3.2870    -8.0320     0.1350 hc         1 0S8       0.056700
     43 H17          2.9850    -7.5410    -1.5360 hc         1 0S8       0.056700
     44 H18          4.2340    -6.7370    -0.5800 hc         1 0S8       0.056700
     45 H19         -3.6330    -2.7630    -0.0140 h4         1 0S8       0.036100
     46 H20         -0.9460     3.4710    -1.8870 hn         1 0S8       0.369000
@<TRIPOS>BOND
     1     1     2 1   
     2     1    27 1   
     3     1    28 1   
     4     1    29 1   
     5     2     3 1   
     6     3     4 1   
     7     3    30 1   
     8     3    31 1   
     9     4     5 1   
    10     4    32 1   
    11     4    33 1   
    12     5     6 1   
    13     5    34 1   
    14     5    35 1   
    15     6     7 1   
    16     6    26 2   
    17     7     8 2   
    18     7    36 1   
    19     8     9 1   
    20     8    25 1   
    21     9    10 1   
    22     9    37 1   
    23    10    11 ar  
    24    10    23 ar  
    25    11    12 ar  
    26    12    13 1   
    27    12    21 ar  
    28    13    14 1   
    29    13    38 1   
    30    14    15 1   
    31    14    39 1   
    32    14    40 1   
    33    15    16 2   
    34    15    20 1   
    35    16    17 1   
    36    16    41 1   
    37    17    18 1   
    38    17    19 2   
    39    18    42 1   
    40    18    43 1   
    41    18    44 1   
    42    19    20 1   
    43    21    22 ar  
    44    22    23 ar  
    45    22    45 1   
    46    23    24 1   
    47    25    26 1   
    48    25    46 1   
@<TRIPOS>SUBSTRUCTURE
     1 0S8         1 TEMP              0 ****  ****    0 ROOT
