@<TRIPOS>MOLECULE
0S9
   49    52     1     0     0
SMALL
No Charge or Current Charge


@<TRIPOS>ATOM
      1 C26          7.8380    -3.1700    -1.1320 ca         1 0S9      -0.112000
      2 C25          7.3190    -4.0770    -0.1930 ca         1 0S9      -0.110000
      3 C27          7.0720    -2.0630    -1.5350 ca         1 0S9      -0.110000
      4 C24          6.0360    -3.8760     0.3450 ca         1 0S9      -0.107000
      5 C28          5.7880    -1.8620    -0.9970 ca         1 0S9      -0.107000
      6 C3           0.4470     4.9380    -0.0960 cc         1 0S9      -0.242000
      7 C17          0.6580    -1.8740    -0.0080 cc         1 0S9      -0.221000
      8 C11         -3.3510     1.9730    -0.0360 ca         1 0S9       0.211900
      9 C23          5.2640    -2.7670    -0.0530 ca         1 0S9      -0.079300
     10 C12         -3.1190     0.7000     0.5080 ca         1 0S9      -0.263900
     11 C2           0.0810     6.1390     0.5290 cc         1 0S9       0.275300
     12 C18          1.3960    -3.0410     0.2370 cc         1 0S9       0.263300
     13 C4          -0.2650     4.9110    -1.2510 cd         1 0S9       0.143300
     14 C16         -0.5250    -2.0220     0.6360 cd         1 0S9       0.237000
     15 C13         -1.8910     0.0880     0.2120 ca         1 0S9       0.461900
     16 C9          -1.2930     1.9030    -1.0260 ca         1 0S9       0.437900
     17 C22          3.8720    -2.5520     0.5250 c3         1 0S9      -0.030100
     18 C21          2.7810    -3.2510    -0.3120 c3         1 0S9      -0.102700
     19 N10         -2.4350     2.5810    -0.8100 nb         1 0S9      -0.262000
     20 N6          -0.7960     6.8470    -0.1620 nd         1 0S9      -0.359300
     21 N14         -0.9730     0.6900    -0.5590 nb         1 0S9      -0.310000
     22 N20         -0.4510    -3.2770     1.2460 na         1 0S9      -0.045200
     23 N19          0.7660    -3.9210     0.9920 nd         1 0S9      -0.515800
     24 N15         -1.6050    -1.1730     0.7230 nu         1 0S9      -0.925900
     25 N8          -0.3240     2.5000    -1.8170 nu         1 0S9      -0.918100
     26 O5          -1.0310     6.0450    -1.3390 os         1 0S9      -0.054700
     27 H1           8.8310    -3.3250    -1.5490 ha         1 0S9       0.111000
     28 H2           7.9110    -4.9350     0.1180 ha         1 0S9       0.110500
     29 H3           7.4710    -1.3610    -2.2630 ha         1 0S9       0.110500
     30 H4           5.6400    -4.5840     1.0700 ha         1 0S9       0.111000
     31 H5           5.2010    -1.0040    -1.3160 ha         1 0S9       0.111000
     32 H6           1.1430     4.1970     0.2790 ha         1 0S9       0.151000
     33 H7           0.9970    -1.0340    -0.5990 ha         1 0S9       0.162000
     34 H8          -4.2790     2.5120     0.1480 h4         1 0S9       0.036100
     35 H9           0.2260     7.5260     2.1730 hc         1 0S9       0.056700
     36 H10          0.4110     5.8210     2.6270 hc         1 0S9       0.056700
     37 H11          1.7320     6.6670     1.7970 hc         1 0S9       0.056700
     38 H12          3.8280    -2.9280     1.5550 hc         1 0S9       0.053200
     39 H13          3.6490    -1.4790     0.5840 hc         1 0S9       0.053200
     40 H14          3.0000    -4.3240    -0.3630 hc         1 0S9       0.056700
     41 H15          2.8250    -2.8780    -1.3430 hc         1 0S9       0.056700
     42 H16         -1.2280     4.0580    -2.9650 h1         1 0S9       0.084200
     43 H17          0.5420     4.0370    -3.0200 h1         1 0S9       0.084200
     44 H18         -1.1740    -3.7080     1.8140 hn         1 0S9       0.368000
     45 H19         -2.3760    -1.5330     1.2870 hn         1 0S9       0.514000
     46 H20          0.5200     1.9400    -1.9490 hn         1 0S9       0.512000
     47 Br1         -4.4510    -0.1390     1.6100 br         1 0S9      -0.079100
     48 C7          -0.3250     3.8830    -2.3620 c3         1 0S9       0.201500
     49 C1           0.6420     6.5630     1.8540 c3         1 0S9      -0.133400
@<TRIPOS>BOND
     1     1     2 ar  
     2     1     3 ar  
     3     1    27 1   
     4     2     4 ar  
     5     2    28 1   
     6     3     5 ar  
     7     3    29 1   
     8     4     9 ar  
     9     4    30 1   
    10     5     9 ar  
    11     5    31 1   
    12     6    11 1   
    13     6    13 2   
    14     6    32 1   
    15     7    12 1   
    16     7    14 2   
    17     7    33 1   
    18     8    10 ar  
    19     8    19 ar  
    20     8    34 1   
    21     9    17 1   
    22    10    15 ar  
    23    10    47 1   
    24    11    20 2   
    25    11    49 1   
    26    12    18 1   
    27    12    23 2   
    28    13    26 1   
    29    13    48 1   
    30    14    22 1   
    31    14    24 1   
    32    15    21 ar  
    33    15    24 1   
    34    16    19 ar  
    35    16    21 ar  
    36    16    25 1   
    37    17    18 1   
    38    17    38 1   
    39    17    39 1   
    40    18    40 1   
    41    18    41 1   
    42    20    26 1   
    43    22    23 1   
    44    22    44 1   
    45    24    45 1   
    46    25    46 1   
    47    25    48 1   
    48    35    49 1   
    49    36    49 1   
    50    37    49 1   
    51    42    48 1   
    52    43    48 1   
@<TRIPOS>SUBSTRUCTURE
     1 0S9         1 TEMP              0 ****  ****    0 ROOT
