@<TRIPOS>MOLECULE
0S9
   49    52     1     0     0
SMALL
bcc


@<TRIPOS>ATOM
      1 C26          7.8660    -3.0030    -0.4210 ca         1 0S9      -0.130000
      2 C25          7.1730    -4.1350    -0.0100 ca         1 0S9      -0.128000
      3 C27          7.2100    -1.7800    -0.4700 ca         1 0S9      -0.128000
      4 C24          5.8350    -4.0420     0.3480 ca         1 0S9      -0.125000
      5 C28          5.8720    -1.6920    -0.1120 ca         1 0S9      -0.125000
      6 C3           0.6960     5.7150    -1.0000 cc         1 0S9      -0.390600
      7 C17          0.5940    -1.7380    -0.1980 cc         1 0S9      -0.304300
      8 C11         -3.6710     1.5870     0.2140 ca         1 0S9       0.540200
      9 C23          5.1660    -2.8200     0.3020 ca         1 0S9      -0.079300
     10 C12         -3.4350     0.2770     0.5620 ca         1 0S9      -0.394500
     11 C2           0.8800     6.2020     0.3230 cc         1 0S9       0.340600
     12 C18          1.3670    -2.9160    -0.2560 cc         1 0S9       0.328600
     13 C4          -0.2250     4.7350    -0.8590 cd         1 0S9       0.253000
     14 C16         -0.6530    -2.1700     0.2030 cd         1 0S9       0.149300
     15 C13         -2.1860    -0.2650     0.1840 ca         1 0S9       0.790200
     16 C9          -1.6540     1.7340    -0.7740 ca         1 0S9       0.963900
     17 C22          3.7050    -2.7300     0.6410 c3         1 0S9      -0.030100
     18 C21          2.8190    -3.0230    -0.5800 c3         1 0S9      -0.102700
     19 N10         -2.7980     2.3340    -0.4480 nb         1 0S9      -0.788000
     20 N6           0.1290     5.5480     1.1620 nd         1 0S9      -0.359300
     21 N14         -1.3170     0.4770    -0.4760 nb         1 0S9      -0.836000
     22 N20         -0.5630    -3.5060     0.3510 na         1 0S9      -0.045600
     23 N19          0.6580    -3.9760     0.0770 nd         1 0S9      -0.515800
     24 N15         -1.8510    -1.5440     0.4840 nu         1 0S9      -0.732300
     25 N8          -0.7460     2.4290    -1.4870 nu         1 0S9      -0.862900
     26 O5          -0.5680     4.6320     0.4260 os         1 0S9      -0.099100
     27 H1           8.9100    -3.0750    -0.6970 ha         1 0S9       0.129000
     28 H2           7.6760    -5.0930     0.0330 ha         1 0S9       0.128500
     29 H3           7.7420    -0.8910    -0.7840 ha         1 0S9       0.128500
     30 H4           5.3030    -4.9300     0.6700 ha         1 0S9       0.129000
     31 H5           5.3680    -0.7330    -0.1480 ha         1 0S9       0.129000
     32 H6           1.1830     6.0440    -1.9020 ha         1 0S9       0.169000
     33 H7           0.9060    -0.7340    -0.4170 ha         1 0S9       0.180000
     34 H8          -4.6080     2.0620     0.4830 h4         1 0S9       0.036100
     35 H9           1.4950     8.2390     0.3200 hc         1 0S9       0.056700
     36 H10          1.7460     7.4080     1.8590 hc         1 0S9       0.056700
     37 H11          2.8110     7.0870     0.4830 hc         1 0S9       0.056700
     38 H12          3.4580    -3.4390     1.4350 hc         1 0S9       0.053200
     39 H13          3.4720    -1.7320     1.0220 hc         1 0S9       0.053200
     40 H14          3.0380    -4.0270    -0.9490 hc         1 0S9       0.056700
     41 H15          3.0710    -2.3260    -1.3830 hc         1 0S9       0.056700
     42 H16         -1.9340     4.0640    -1.9340 h1         1 0S9       0.084200
     43 H17         -0.4190     3.9820    -2.8130 h1         1 0S9       0.084200
     44 H18         -1.2990    -4.1440     0.6110 hn         1 0S9       0.317700
     45 H19         -2.5360    -2.1020     0.9720 hn         1 0S9       0.458800
     46 H20          0.1320     1.9720    -1.6740 hn         1 0S9       0.456800
     47 BR1         -4.7310    -0.7080     1.5020 br         1 0S9      -0.079100
     48 C7          -0.8760     3.8170    -1.8380 c3         1 0S9       0.201500
     49 C1           1.7820     7.2920     0.7770 c3         1 0S9      -0.133400
@<TRIPOS>BOND
     1     1     2 ar  
     2     1     3 ar  
     3     1    27 1   
     4     2     4 ar  
     5     2    28 1   
     6     3     5 ar  
     7     3    29 1   
     8     4     9 ar  
     9     4    30 1   
    10     5     9 ar  
    11     5    31 1   
    12     6    11 1   
    13     6    13 2   
    14     6    32 1   
    15     7    12 1   
    16     7    14 2   
    17     7    33 1   
    18     8    10 ar  
    19     8    19 ar  
    20     8    34 1   
    21     9    17 1   
    22    10    15 ar  
    23    10    47 1   
    24    11    20 2   
    25    11    49 1   
    26    12    18 1   
    27    12    23 2   
    28    13    26 1   
    29    13    48 1   
    30    14    22 1   
    31    14    24 1   
    32    15    21 ar  
    33    15    24 1   
    34    16    19 ar  
    35    16    21 ar  
    36    16    25 1   
    37    17    18 1   
    38    17    38 1   
    39    17    39 1   
    40    18    40 1   
    41    18    41 1   
    42    20    26 1   
    43    22    23 1   
    44    22    44 1   
    45    24    45 1   
    46    25    46 1   
    47    25    48 1   
    48    35    49 1   
    49    36    49 1   
    50    37    49 1   
    51    42    48 1   
    52    43    48 1   
@<TRIPOS>SUBSTRUCTURE
     1 0S9         1 TEMP              0 ****  ****    0 ROOT
