@<TRIPOS>MOLECULE
0SB
   49    52     1     0     0
SMALL
abcg2


@<TRIPOS>ATOM
      1 C1          -3.6480    -0.2980    -0.1140 ca         1 0SB       0.284000
      2 C2          -2.5970     0.6170     0.0220 ca         1 0SB      -0.108000
      3 C3          -4.9210     0.2140    -0.3970 ca         1 0SB      -0.159000
      4 C4          -2.7860     1.9860    -0.1270 cp         1 0SB      -0.127500
      5 C5          -5.1130     1.5840    -0.5300 ca         1 0SB      -0.092000
      6 C6          -4.0630     2.4770    -0.4050 ca         1 0SB      -0.125000
      7 C7          -1.6120     2.8760     0.0260 cp         1 0SB       0.453500
      8 C11         -0.5510     4.9780     0.4050 ca         1 0SB      -0.045000
      9 C12          0.6740     4.3490     0.3390 ca         1 0SB      -0.216000
     10 C15          3.3870     0.4880    -0.3360 ca         1 0SB      -0.179000
     11 C17          3.6690    -0.8520    -0.1930 ca         1 0SB      -0.123300
     12 C18          1.5530    -1.1240     0.8290 ca         1 0SB       0.372900
     13 C19          2.7320    -1.6980     0.3990 ca         1 0SB      -0.169000
     14 C27         -1.8680    -3.5700    -0.0270 c6         1 0SB       0.143300
     15 F23          5.7470    -1.7420     0.4100 f          1 0SB      -0.110000
     16 C20          4.9820    -1.4200    -0.6410 c3         1 0SB       0.356300
     17 F21          4.8130    -2.5370    -1.3560 f          1 0SB      -0.110000
     18 F22          5.6840    -0.5710    -1.3940 f          1 0SB      -0.110000
     19 N16          1.2640     0.1670     0.7160 nb         1 0SB      -0.672000
     20 C14          2.1510     0.9620     0.1380 ca         1 0SB       0.623900
     21 C10          0.6800     2.9660     0.1080 ca         1 0SB       0.620900
     22 N8          -0.4270     2.2760    -0.0650 nb         1 0SB      -0.703000
     23 C9          -1.7230     4.2410     0.2640 ca         1 0SB      -0.186000
     24 N24         -3.4020    -1.6580     0.0650 nh         1 0SB      -0.784400
     25 C26         -4.5320    -2.5670     0.0530 c6         1 0SB       0.157800
     26 C28         -4.1280    -3.9210     0.6300 c6         1 0SB       0.143300
     27 N29         -2.9680    -4.5160    -0.0060 n7         1 0SB      -0.842400
     28 C25         -2.2420    -2.2190    -0.6180 c6         1 0SB       0.157800
     29 H1          -1.6030     0.2750     0.2750 ha         1 0SB       0.150000
     30 H2          -5.7690    -0.4420    -0.5310 ha         1 0SB       0.111000
     31 H3          -6.1050     1.9530    -0.7580 ha         1 0SB       0.110000
     32 H4          -4.2400     3.5350    -0.5400 ha         1 0SB       0.112000
     33 H5          -0.6010     6.0430     0.5860 ha         1 0SB       0.119000
     34 H6           1.5970     4.8990     0.4700 ha         1 0SB       0.122000
     35 H7           2.6960     2.8930    -0.1570 hn         1 0SB       0.504000
     36 H8           4.0820     1.1710    -0.8040 ha         1 0SB       0.137000
     37 H9           0.7970    -1.7390     1.3050 h4         1 0SB       0.027100
     38 H10          2.9030    -2.7570     0.5290 ha         1 0SB       0.141000
     39 H11         -1.5160    -3.4270     1.0000 h1         1 0SB       0.059700
     40 H12         -1.0380    -3.9910    -0.5970 h1         1 0SB       0.059700
     41 H13         -2.6840     4.7260     0.3540 ha         1 0SB       0.129000
     42 H14         -5.3380    -2.1580     0.6660 h1         1 0SB       0.042450
     43 H15         -4.9330    -2.7060    -0.9650 h1         1 0SB       0.042450
     44 H16         -3.9090    -3.7970     1.6950 h1         1 0SB       0.059700
     45 H17         -4.9740    -4.6060     0.5550 h1         1 0SB       0.059700
     46 H18         -3.2040    -4.7710    -0.9590 hn         1 0SB       0.402000
     47 H20         -1.3890    -1.5470    -0.5330 h1         1 0SB       0.042450
     48 H21         -2.4510    -2.3360    -1.6930 h1         1 0SB       0.042450
     49 N13          1.8940     2.3080     0.0190 nu         1 0SB      -0.922800
@<TRIPOS>BOND
     1     1     2 ar  
     2     1     3 ar  
     3     1    24 1   
     4     2     4 ar  
     5     2    29 1   
     6     3     5 ar  
     7     3    30 1   
     8     4     6 ar  
     9     4     7 1   
    10     5     6 ar  
    11     5    31 1   
    12     6    32 1   
    13     7    22 ar  
    14     7    23 ar  
    15     8     9 ar  
    16     8    23 ar  
    17     8    33 1   
    18     9    21 ar  
    19     9    34 1   
    20    10    11 ar  
    21    10    20 ar  
    22    10    36 1   
    23    11    13 ar  
    24    11    16 1   
    25    12    13 ar  
    26    12    19 ar  
    27    12    37 1   
    28    13    38 1   
    29    14    27 1   
    30    14    28 1   
    31    14    39 1   
    32    14    40 1   
    33    15    16 1   
    34    16    17 1   
    35    16    18 1   
    36    19    20 ar  
    37    20    49 1   
    38    21    22 ar  
    39    21    49 1   
    40    23    41 1   
    41    24    25 1   
    42    24    28 1   
    43    25    26 1   
    44    25    42 1   
    45    25    43 1   
    46    26    27 1   
    47    26    44 1   
    48    26    45 1   
    49    27    46 1   
    50    28    47 1   
    51    28    48 1   
    52    35    49 1   
@<TRIPOS>SUBSTRUCTURE
     1 0SB         1 TEMP              0 ****  ****    0 ROOT
