@<TRIPOS>MOLECULE
0SB
   49    52     1     0     0
SMALL
No Charge or Current Charge


@<TRIPOS>ATOM
      1 C1          -3.7350    -0.3100    -0.3320 ca         1 0SB       0.284000
      2 C2          -2.6500     0.5450    -0.0620 ca         1 0SB      -0.108000
      3 C3          -4.9510     0.2560    -0.7640 ca         1 0SB      -0.159000
      4 C4          -2.7370     1.9580    -0.2160 cp         1 0SB      -0.127500
      5 C5          -5.0710     1.6440    -0.9290 ca         1 0SB      -0.092000
      6 C6          -3.9790     2.4850    -0.6610 ca         1 0SB      -0.125000
      7 C7          -1.5560     2.8490     0.0790 cp         1 0SB       0.453500
      8 C11         -0.5590     5.0000     0.6670 ca         1 0SB      -0.045000
      9 C12          0.6890     4.3630     0.6280 ca         1 0SB      -0.216000
     10 C15          3.4940     0.5950    -0.3570 ca         1 0SB      -0.179000
     11 C17          3.9090    -0.7480    -0.2380 ca         1 0SB      -0.123300
     12 C18          2.0100    -1.0430     1.2560 ca         1 0SB       0.372900
     13 C19          3.1330    -1.5760     0.5990 ca         1 0SB      -0.169000
     14 C27         -2.1160    -3.7890    -0.1160 c6         1 0SB       0.143300
     15 F23          6.2720    -1.0730    -0.2250 f          1 0SB      -0.110000
     16 C20          5.1560    -1.2710    -0.9610 c3         1 0SB       0.356300
     17 F21          5.0830    -2.5970    -1.2190 f          1 0SB      -0.110000
     18 F22          5.3520    -0.6560    -2.1500 f          1 0SB      -0.110000
     19 N16          1.6220     0.2430     1.1280 nb         1 0SB      -0.672000
     20 C14          2.3440     1.0320     0.3210 ca         1 0SB       0.623900
     21 C10          0.7430     2.9950     0.3340 ca         1 0SB       0.620900
     22 N8          -0.3380     2.2660     0.0430 nb         1 0SB      -0.703000
     23 C9          -1.6950     4.2250     0.3930 ca         1 0SB      -0.186000
     24 N24         -3.5950    -1.7110    -0.1600 nh         1 0SB      -0.784400
     25 C26         -4.7760    -2.5810     0.1490 c6         1 0SB       0.157800
     26 C28         -4.3700    -3.9240     0.8420 c6         1 0SB       0.143300
     27 N29         -3.3080    -4.6610     0.0970 n7         1 0SB      -0.842400
     28 C25         -2.4720    -2.4430    -0.8320 c6         1 0SB       0.157800
     29 H1          -1.7240     0.1030     0.2930 ha         1 0SB       0.150000
     30 H2          -5.8040    -0.3770    -0.9880 ha         1 0SB       0.111000
     31 H3          -6.0110     2.0700    -1.2730 ha         1 0SB       0.110000
     32 H4          -4.1020     3.5530    -0.8180 ha         1 0SB       0.112000
     33 H5          -0.6430     6.0580     0.9070 ha         1 0SB       0.119000
     34 H6           1.5980     4.9190     0.8340 ha         1 0SB       0.122000
     35 H7           2.7180     2.9790     0.0500 hn         1 0SB       0.504000
     36 H8           4.0510     1.2940    -0.9740 ha         1 0SB       0.137000
     37 H9           1.4040    -1.6690     1.9110 h4         1 0SB       0.027100
     38 H10          3.3910    -2.6200     0.7550 ha         1 0SB       0.141000
     39 H11         -1.6570    -3.5580     0.8570 h1         1 0SB       0.059700
     40 H12         -1.3620    -4.3260    -0.7100 h1         1 0SB       0.059700
     41 H13         -2.6770     4.6850     0.4390 ha         1 0SB       0.129000
     42 H14         -5.4750    -2.0510     0.8130 h1         1 0SB       0.042450
     43 H15         -5.3180    -2.8120    -0.7800 h1         1 0SB       0.042450
     44 H16         -4.0100    -3.7010     1.8570 h1         1 0SB       0.059700
     45 H17         -5.2610    -4.5610     0.9480 h1         1 0SB       0.059700
     46 H18         -3.6850    -4.9080    -0.8270 hn         1 0SB       0.402000
     47 H20         -1.5640    -1.8240    -0.8680 h1         1 0SB       0.042450
     48 H21         -2.7510    -2.6610    -1.8740 h1         1 0SB       0.042450
     49 N13          1.9510     2.3490     0.2450 nu         1 0SB      -0.922800
@<TRIPOS>BOND
     1     1     2 ar  
     2     1     3 ar  
     3     1    24 1   
     4     2     4 ar  
     5     2    29 1   
     6     3     5 ar  
     7     3    30 1   
     8     4     6 ar  
     9     4     7 1   
    10     5     6 ar  
    11     5    31 1   
    12     6    32 1   
    13     7    22 ar  
    14     7    23 ar  
    15     8     9 ar  
    16     8    23 ar  
    17     8    33 1   
    18     9    21 ar  
    19     9    34 1   
    20    10    11 ar  
    21    10    20 ar  
    22    10    36 1   
    23    11    13 ar  
    24    11    16 1   
    25    12    13 ar  
    26    12    19 ar  
    27    12    37 1   
    28    13    38 1   
    29    14    27 1   
    30    14    28 1   
    31    14    39 1   
    32    14    40 1   
    33    15    16 1   
    34    16    17 1   
    35    16    18 1   
    36    19    20 ar  
    37    20    49 1   
    38    21    22 ar  
    39    21    49 1   
    40    23    41 1   
    41    24    25 1   
    42    24    28 1   
    43    25    26 1   
    44    25    42 1   
    45    25    43 1   
    46    26    27 1   
    47    26    44 1   
    48    26    45 1   
    49    27    46 1   
    50    28    47 1   
    51    28    48 1   
    52    35    49 1   
@<TRIPOS>SUBSTRUCTURE
     1 0SB         1 TEMP              0 ****  ****    0 ROOT
