@<TRIPOS>MOLECULE
0SC
   70    75     1     0     0
SMALL
bcc


@<TRIPOS>ATOM
      1 F           -4.8780    -2.0330     1.5470 f          1 0SC      -0.136900
      2 C24         -5.3740    -0.8310     1.2070 ca         1 0SC       0.148900
      3 C23         -6.7310    -0.6230     1.4600 ca         1 0SC      -0.167000
      4 C22         -7.3130     0.5920     1.1660 ca         1 0SC      -0.103000
      5 C21         -6.4980     1.5840     0.6310 ca         1 0SC      -0.080200
      6 N5          -6.8050     2.8560     0.2420 na         1 0SC      -0.170400
      7 C20         -5.6840     3.4610    -0.2360 cc         1 0SC      -0.113100
      8 C19         -4.6230     2.6020    -0.1650 cd         1 0SC      -0.174200
      9 C18         -5.1190     1.3840     0.3910 ca         1 0SC      -0.041800
     10 C17         -4.5350     0.1300     0.6740 cp         1 0SC      -0.136500
     11 C16         -3.1070    -0.1230     0.3860 cp         1 0SC       0.786500
     12 N4          -2.2660     0.8440     0.6510 nb         1 0SC      -0.726000
     13 C13         -0.9850     0.6160     0.2850 ca         1 0SC       0.342300
     14 C12         -0.0220     1.6340     0.4660 ca         1 0SC      -0.160300
     15 C11          1.2570     1.4360     0.0350 ca         1 0SC      -0.198300
     16 N3          -2.8080    -1.3140    -0.1390 nb         1 0SC      -0.819000
     17 C15         -1.5590    -1.6140    -0.4560 ca         1 0SC       0.700900
     18 N6          -1.3330    -2.8500    -0.9410 nh         1 0SC      -0.760300
     19 C28         -0.0510    -3.5430    -0.9900 c6         1 0SC       0.177300
     20 C27          0.0750    -4.3060    -2.2950 c6         1 0SC       0.115900
     21 O1          -0.9960    -5.2020    -2.4890 os         1 0SC      -0.400600
     22 C26         -2.2300    -4.5220    -2.4590 c6         1 0SC       0.115900
     23 C25         -2.4420    -3.7690    -1.1580 c6         1 0SC       0.177300
     24 C14         -0.5460    -0.5850    -0.3020 ca         1 0SC       0.145000
     25 N2           0.7150    -0.7510    -0.7310 nb         1 0SC      -0.669000
     26 C10          1.5890     0.2120    -0.5860 ca         1 0SC       0.405600
     27 C9           2.9600    -0.0040    -1.1730 c3         1 0SC       0.120500
     28 N1           3.9940     0.6850    -0.4420 n3         1 0SC      -0.732600
     29 C6           5.1980     0.8720    -1.2280 c6         1 0SC       0.170300
     30 C5           6.2140     1.7250    -0.4850 c6         1 0SC      -0.069900
     31 C7           4.2870     0.0450     0.8280 c6         1 0SC       0.170300
     32 C8           5.2640     0.8710     1.6460 c6         1 0SC      -0.069900
     33 C4           6.5600     1.1180     0.8740 c6         1 0SC      -0.085700
     34 C2           7.6120     1.9190     1.6730 c3         1 0SC       0.165800
     35 O2           7.9130     1.2210     2.8780 oh         1 0SC      -0.597800
     36 C3           8.8930     2.0860     0.8540 c3         1 0SC      -0.100100
     37 C1           7.1040     3.2880     2.1100 c3         1 0SC      -0.100100
     38 H1          -7.3160    -1.4250     1.8910 ha         1 0SC       0.148000
     39 H2          -8.3660     0.7610     1.3510 ha         1 0SC       0.135000
     40 H3          -7.7180     3.2770     0.2860 hn         1 0SC       0.299700
     41 H4          -5.7210     4.4770    -0.5950 h4         1 0SC       0.162000
     42 H5          -3.6120     2.8200    -0.4620 ha         1 0SC       0.169000
     43 H6          -0.3280     2.5620     0.9310 ha         1 0SC       0.156000
     44 H7           2.0180     2.1960     0.1520 ha         1 0SC       0.163000
     45 H8           0.7680    -2.8400    -0.9050 h1         1 0SC       0.074450
     46 H9          -0.0010    -4.2420    -0.1470 h1         1 0SC       0.074450
     47 H10          0.1390    -3.5930    -3.1290 h1         1 0SC       0.054200
     48 H11          0.9950    -4.8930    -2.2830 h1         1 0SC       0.054200
     49 H12         -2.3030    -3.8160    -3.2990 h1         1 0SC       0.054200
     50 H13         -3.0180    -5.2660    -2.5780 h1         1 0SC       0.054200
     51 H14         -2.5100    -4.4700    -0.3180 h1         1 0SC       0.074450
     52 H15         -3.3780    -3.2210    -1.2040 h1         1 0SC       0.074450
     53 H16          3.1380    -1.0870    -1.2670 h1         1 0SC       0.049700
     54 H17          2.9430     0.3900    -2.1960 h1         1 0SC       0.049700
     55 H19          5.6620    -0.0950    -1.4960 h1         1 0SC       0.032200
     56 H20          4.9280     1.3600    -2.1670 h1         1 0SC       0.032200
     57 H21          7.1040     1.8160    -1.1110 hc         1 0SC       0.051950
     58 H22          5.8050     2.7320    -0.3560 hc         1 0SC       0.051950
     59 H23          3.3560    -0.0770     1.3870 h1         1 0SC       0.032200
     60 H24          4.6960    -0.9700     0.6740 h1         1 0SC       0.032200
     61 H25          4.7890     1.8240     1.8980 hc         1 0SC       0.051950
     62 H26          5.4670     0.3550     2.5860 hc         1 0SC       0.051950
     63 H27          7.0170     0.1350     0.6730 hc         1 0SC       0.036700
     64 H28          8.2280     0.3420     2.6400 ho         1 0SC       0.398000
     65 H29          8.7490     2.7480    -0.0000 hc         1 0SC       0.042033
     66 H30          9.6810     2.5190     1.4720 hc         1 0SC       0.042033
     67 H31          9.2470     1.1250     0.4720 hc         1 0SC       0.042033
     68 H32          6.2570     3.2120     2.7920 hc         1 0SC       0.042033
     69 H33          7.8940     3.8430     2.6200 hc         1 0SC       0.042033
     70 H34          6.7900     3.8830     1.2520 hc         1 0SC       0.042033
@<TRIPOS>BOND
     1     1     2 1   
     2     2     3 ar  
     3     2    10 ar  
     4     3     4 ar  
     5     3    38 1   
     6     4     5 ar  
     7     4    39 1   
     8     5     6 1   
     9     5     9 ar  
    10     6     7 1   
    11     6    40 1   
    12     7     8 2   
    13     7    41 1   
    14     8     9 1   
    15     8    42 1   
    16     9    10 ar  
    17    10    11 1   
    18    11    12 ar  
    19    11    16 ar  
    20    12    13 ar  
    21    13    14 ar  
    22    13    24 ar  
    23    14    15 ar  
    24    14    43 1   
    25    15    26 ar  
    26    15    44 1   
    27    16    17 ar  
    28    17    18 1   
    29    17    24 ar  
    30    18    19 1   
    31    18    23 1   
    32    19    20 1   
    33    19    45 1   
    34    19    46 1   
    35    20    21 1   
    36    20    47 1   
    37    20    48 1   
    38    21    22 1   
    39    22    23 1   
    40    22    49 1   
    41    22    50 1   
    42    23    51 1   
    43    23    52 1   
    44    24    25 ar  
    45    25    26 ar  
    46    26    27 1   
    47    27    28 1   
    48    27    53 1   
    49    27    54 1   
    50    28    29 1   
    51    28    31 1   
    52    29    30 1   
    53    29    55 1   
    54    29    56 1   
    55    30    33 1   
    56    30    57 1   
    57    30    58 1   
    58    31    32 1   
    59    31    59 1   
    60    31    60 1   
    61    32    33 1   
    62    32    61 1   
    63    32    62 1   
    64    33    34 1   
    65    33    63 1   
    66    34    35 1   
    67    34    36 1   
    68    34    37 1   
    69    35    64 1   
    70    36    65 1   
    71    36    66 1   
    72    36    67 1   
    73    37    68 1   
    74    37    69 1   
    75    37    70 1   
@<TRIPOS>SUBSTRUCTURE
     1 0SC         1 TEMP              0 ****  ****    0 ROOT
