@<TRIPOS>MOLECULE
0SC
   70    75     1     0     0
SMALL
No Charge or Current Charge


@<TRIPOS>ATOM
      1 F           -4.5360    -2.0460     1.8770 f          1 0SC      -0.172000
      2 C24         -5.2140    -0.9240     1.5420 ca         1 0SC       0.184000
      3 C23         -6.5410    -0.7960     2.0130 ca         1 0SC      -0.149000
      4 C22         -7.2930     0.3600     1.7330 ca         1 0SC      -0.085000
      5 C21         -6.6810     1.3670     0.9800 ca         1 0SC      -0.080200
      6 N5          -7.2240     2.5770     0.5750 na         1 0SC      -0.220700
      7 C20         -6.2870     3.2970    -0.1900 cc         1 0SC      -0.163100
      8 C19         -5.1720     2.4740    -0.2200 cd         1 0SC      -0.224200
      9 C18         -5.3930     1.2490     0.5200 ca         1 0SC      -0.041800
     10 C17         -4.5910     0.1060     0.7720 cp         1 0SC      -0.136500
     11 C16         -3.1820    -0.0110     0.2650 cp         1 0SC       0.260500
     12 N4          -2.4150     1.0950     0.2940 nb         1 0SC      -0.200000
     13 C13         -1.1520     1.0210    -0.1700 ca         1 0SC       0.014000
     14 C12         -0.3350     2.1660    -0.1630 ca         1 0SC      -0.077000
     15 C11          0.9730     2.0750    -0.6590 ca         1 0SC      -0.115000
     16 N3          -2.7760    -1.2080    -0.1900 nb         1 0SC      -0.293000
     17 C15         -1.5140    -1.3260    -0.6480 ca         1 0SC       0.437900
     18 N6          -1.1630    -2.6350    -1.1020 nh         1 0SC      -0.760300
     19 C28          0.0130    -3.3470    -0.4970 c6         1 0SC       0.177300
     20 C27          0.5420    -4.4830    -1.4210 c6         1 0SC       0.139100
     21 O1          -0.5310    -5.3790    -1.7950 os         1 0SC      -0.447000
     22 C26         -1.5940    -4.7040    -2.5080 c6         1 0SC       0.139100
     23 C25         -2.2130    -3.5700    -1.6370 c6         1 0SC       0.177300
     24 C14         -0.6190    -0.2010    -0.6760 ca         1 0SC       0.145000
     25 N2           0.6580    -0.2660    -1.1650 nb         1 0SC      -0.669000
     26 C10          1.4360     0.8460    -1.1530 ca         1 0SC       0.340300
     27 C9           2.8660     0.7150    -1.7040 c3         1 0SC       0.120500
     28 N1           3.9530     1.1480    -0.7760 n3         1 0SC      -0.732600
     29 C6           5.2840     1.1630    -1.4400 c6         1 0SC       0.170300
     30 C5           6.3850     1.7260    -0.5070 c6         1 0SC      -0.069900
     31 C7           3.9880     0.3480     0.4800 c6         1 0SC       0.170300
     32 C8           5.0470     0.8920     1.4700 c6         1 0SC      -0.069900
     33 C4           6.4680     0.9220     0.8270 c6         1 0SC      -0.085700
     34 C2           7.6070     1.4100     1.8100 c3         1 0SC       0.189000
     35 O2           7.6240     0.5630     2.9620 oh         1 0SC      -0.660000
     36 C3           9.0140     1.2900     1.1720 c3         1 0SC      -0.100100
     37 C1           7.4080     2.8570     2.3300 c3         1 0SC      -0.100100
     38 H1          -6.9800    -1.5970     2.6020 ha         1 0SC       0.130000
     39 H2          -8.3150     0.4650     2.0900 ha         1 0SC       0.117000
     40 H3          -8.1650     2.8920     0.7970 hn         1 0SC       0.350000
     41 H4          -6.4830     4.2740    -0.6260 h4         1 0SC       0.212000
     42 H5          -4.2550     2.7270    -0.7470 ha         1 0SC       0.219000
     43 H6          -0.7120     3.1110     0.2210 ha         1 0SC       0.138000
     44 H7           1.6280     2.9420    -0.6620 ha         1 0SC       0.145000
     45 H8           0.8430    -2.6570    -0.2950 h1         1 0SC       0.074450
     46 H9          -0.2740    -3.7870     0.4690 h1         1 0SC       0.074450
     47 H10          0.9860    -4.0500    -2.3280 h1         1 0SC       0.054200
     48 H11          1.3220    -5.0540    -0.8990 h1         1 0SC       0.054200
     49 H12         -1.1910    -4.2800    -3.4400 h1         1 0SC       0.054200
     50 H13         -2.3710    -5.4340    -2.7750 h1         1 0SC       0.054200
     51 H14         -2.7730    -4.0270    -0.8080 h1         1 0SC       0.074450
     52 H15         -2.9380    -3.0210    -2.2560 h1         1 0SC       0.074450
     53 H16          3.0330    -0.3280    -2.0070 h1         1 0SC       0.049700
     54 H17          2.9100     1.3150    -2.6230 h1         1 0SC       0.049700
     55 H19          5.5650     0.1460    -1.7520 h1         1 0SC       0.032200
     56 H20          5.2480     1.7810    -2.3490 h1         1 0SC       0.032200
     57 H21          7.3420     1.6950    -1.0410 hc         1 0SC       0.051950
     58 H22          6.1710     2.7840    -0.3050 hc         1 0SC       0.051950
     59 H23          3.0080     0.3690     0.9780 h1         1 0SC       0.032200
     60 H24          4.2130    -0.7050     0.2550 h1         1 0SC       0.032200
     61 H25          4.7450     1.8990     1.7850 hc         1 0SC       0.051950
     62 H26          5.0430     0.2670     2.3730 hc         1 0SC       0.051950
     63 H27          6.7270    -0.1140     0.5640 hc         1 0SC       0.036700
     64 H28          7.7480    -0.3540     2.6380 ho         1 0SC       0.437000
     65 H29          9.1470     2.0170     0.3620 hc         1 0SC       0.042033
     66 H30          9.7990     1.4810     1.9150 hc         1 0SC       0.042033
     67 H31          9.1770     0.2860     0.7600 hc         1 0SC       0.042033
     68 H32          6.4640     2.9630     2.8750 hc         1 0SC       0.042033
     69 H33          8.2170     3.1360     3.0170 hc         1 0SC       0.042033
     70 H34          7.4120     3.5800     1.5060 hc         1 0SC       0.042033
@<TRIPOS>BOND
     1     1     2 1   
     2     2     3 ar  
     3     2    10 ar  
     4     3     4 ar  
     5     3    38 1   
     6     4     5 ar  
     7     4    39 1   
     8     5     6 1   
     9     5     9 ar  
    10     6     7 1   
    11     6    40 1   
    12     7     8 2   
    13     7    41 1   
    14     8     9 1   
    15     8    42 1   
    16     9    10 ar  
    17    10    11 1   
    18    11    12 ar  
    19    11    16 ar  
    20    12    13 ar  
    21    13    14 ar  
    22    13    24 ar  
    23    14    15 ar  
    24    14    43 1   
    25    15    26 ar  
    26    15    44 1   
    27    16    17 ar  
    28    17    18 1   
    29    17    24 ar  
    30    18    19 1   
    31    18    23 1   
    32    19    20 1   
    33    19    45 1   
    34    19    46 1   
    35    20    21 1   
    36    20    47 1   
    37    20    48 1   
    38    21    22 1   
    39    22    23 1   
    40    22    49 1   
    41    22    50 1   
    42    23    51 1   
    43    23    52 1   
    44    24    25 ar  
    45    25    26 ar  
    46    26    27 1   
    47    27    28 1   
    48    27    53 1   
    49    27    54 1   
    50    28    29 1   
    51    28    31 1   
    52    29    30 1   
    53    29    55 1   
    54    29    56 1   
    55    30    33 1   
    56    30    57 1   
    57    30    58 1   
    58    31    32 1   
    59    31    59 1   
    60    31    60 1   
    61    32    33 1   
    62    32    61 1   
    63    32    62 1   
    64    33    34 1   
    65    33    63 1   
    66    34    35 1   
    67    34    36 1   
    68    34    37 1   
    69    35    64 1   
    70    36    65 1   
    71    36    66 1   
    72    36    67 1   
    73    37    68 1   
    74    37    69 1   
    75    37    70 1   
@<TRIPOS>SUBSTRUCTURE
     1 0SC         1 TEMP              0 ****  ****    0 ROOT
