@<TRIPOS>MOLECULE
0SD
   69    74     1     0     0
SMALL
No Charge or Current Charge


@<TRIPOS>ATOM
      1 N            3.7250    -0.2950     1.1570 n3         1 0SD      -0.721600
      2 C            8.7690    -0.7550    -0.7700 c3         1 0SD      -0.102100
      3 O           -0.3270     5.3370    -0.7390 os         1 0SD      -0.446000
      4 C1           7.3740    -1.1890    -1.2910 c3         1 0SD       0.190000
      5 N1           0.5130     0.5020     1.1900 nb         1 0SD      -0.627000
      6 O1           7.0190    -0.2730    -2.3280 oh         1 0SD      -0.660000
      7 C2           7.5190    -2.5840    -1.9530 c3         1 0SD      -0.102100
      8 N2          -2.8500     1.0450    -0.2250 nb         1 0SD      -0.307000
      9 C3           6.2780    -1.1780    -0.1480 c6         1 0SD      -0.083700
     10 N3          -2.6400    -1.2160     0.4730 nb         1 0SD      -0.223000
     11 C4           6.1120     0.2090     0.5500 c6         1 0SD      -0.071900
     12 N4          -6.2650    -3.6710     0.4260 na         1 0SD       0.009500
     13 C5           5.0420     0.1690     1.6670 c6         1 0SD       0.174800
     14 N5          -7.3110    -3.1010    -0.2970 nc         1 0SD      -0.291400
     15 C6           3.8380    -1.6440     0.5400 c6         1 0SD       0.174800
     16 N6          -1.1490     2.6410    -0.0630 nh         1 0SD      -0.755300
     17 C7           4.8680    -1.6620    -0.6160 c6         1 0SD      -0.071900
     18 C8           2.6580    -0.2120     2.2020 c3         1 0SD       0.133500
     19 C9           1.2230    -0.5180     1.7330 ca         1 0SD       0.331300
     20 C10          0.6800    -1.8050     1.8830 ca         1 0SD      -0.132000
     21 C11         -0.6320    -2.0490     1.4530 ca         1 0SD      -0.074000
     22 C12         -1.3730    -1.0000     0.8820 ca         1 0SD       0.016000
     23 C13         -0.7640     0.2800     0.7540 ca         1 0SD       0.142000
     24 C14         -1.5830     1.2980     0.1600 ca         1 0SD       0.438900
     25 C15         -3.3400    -0.1970    -0.0600 cp         1 0SD       0.263500
     26 C16         -4.7570    -0.4540    -0.5250 cp         1 0SD      -0.098500
     27 C17         -5.4640     0.5210    -1.2920 ca         1 0SD      -0.075000
     28 C18         -6.7830     0.3010    -1.7380 ca         1 0SD      -0.119000
     29 C19         -7.4470    -0.8990    -1.4330 ca         1 0SD      -0.060000
     30 C20         -6.7750    -1.8690    -0.6790 ca         1 0SD      -0.082000
     31 C21         -5.4800    -1.6510    -0.2440 ca         1 0SD      -0.118000
     32 C22         -5.1550    -2.8380     0.4850 cc         1 0SD      -0.171100
     33 C23         -2.1300     3.7800    -0.0660 c6         1 0SD       0.173300
     34 C24         -1.4310     5.1510     0.1790 c6         1 0SD       0.139600
     35 C25          0.6800     4.3050    -0.6130 c6         1 0SD       0.139600
     36 C26          0.0690     2.9030    -0.9000 c6         1 0SD       0.173300
     37 H2           9.5300    -0.8560    -1.5530 hc         1 0SD       0.041867
     38 H3           8.7730     0.2940    -0.4520 hc         1 0SD       0.041867
     39 H4           9.0760    -1.3740     0.0810 hc         1 0SD       0.041867
     40 H5           6.0650    -0.4070    -2.5050 ho         1 0SD       0.440000
     41 H6           7.7250    -3.3520    -1.1980 hc         1 0SD       0.041867
     42 H7           6.6120    -2.8730    -2.4970 hc         1 0SD       0.041867
     43 H8           8.3430    -2.5930    -2.6760 hc         1 0SD       0.041867
     44 H9           6.6340    -1.8890     0.6110 hc         1 0SD       0.046700
     45 H10          7.0590     0.5340     1.0000 hc         1 0SD       0.048950
     46 H11          5.8350     0.9760    -0.1850 hc         1 0SD       0.048950
     47 H12         -6.3590    -4.5940     0.8440 hn         1 0SD       0.368000
     48 H13          4.9480     1.1770     2.0970 h1         1 0SD       0.029700
     49 H14          5.3900    -0.4940     2.4740 h1         1 0SD       0.029700
     50 H15          4.1330    -2.3850     1.2980 h1         1 0SD       0.029700
     51 H16          2.8670    -1.9650     0.1360 h1         1 0SD       0.029700
     52 H17          4.4950    -1.0310    -1.4330 hc         1 0SD       0.048950
     53 H18          4.9170    -2.6860    -1.0060 hc         1 0SD       0.048950
     54 H19          2.9000    -0.8950     3.0270 h1         1 0SD       0.042700
     55 H20          2.6540     0.7980     2.6340 h1         1 0SD       0.042700
     56 H21          1.2720    -2.6010     2.3270 ha         1 0SD       0.124000
     57 H22         -1.0690    -3.0390     1.5640 ha         1 0SD       0.133000
     58 H23         -4.9890     1.4630    -1.5560 ha         1 0SD       0.129000
     59 H24         -7.2910     1.0650    -2.3230 ha         1 0SD       0.112000
     60 H25         -8.4650    -1.0700    -1.7760 ha         1 0SD       0.126000
     61 H26         -4.2680    -3.1510     1.0250 h4         1 0SD       0.243000
     62 H27         -2.6600     3.8220    -1.0290 h1         1 0SD       0.073200
     63 H28         -2.8880     3.6380     0.7180 h1         1 0SD       0.073200
     64 H29         -1.0540     5.1960     1.2110 h1         1 0SD       0.057200
     65 H30         -2.1540     5.9670     0.0450 h1         1 0SD       0.057200
     66 H31          1.4960     4.5080    -1.3210 h1         1 0SD       0.057200
     67 H32          1.0990     4.3280     0.4040 h1         1 0SD       0.057200
     68 H33          0.8490     2.1480    -0.7280 h1         1 0SD       0.073200
     69 H34         -0.1930     2.8480    -1.9670 h1         1 0SD       0.073200
@<TRIPOS>BOND
     1     1    13 1   
     2     1    15 1   
     3     1    18 1   
     4     2     4 1   
     5     2    37 1   
     6     2    38 1   
     7     2    39 1   
     8     3    34 1   
     9     3    35 1   
    10     4     6 1   
    11     4     7 1   
    12     4     9 1   
    13     5    19 ar  
    14     5    23 ar  
    15     6    40 1   
    16     7    41 1   
    17     7    42 1   
    18     7    43 1   
    19     8    24 ar  
    20     8    25 ar  
    21     9    11 1   
    22     9    17 1   
    23     9    44 1   
    24    10    22 ar  
    25    10    25 ar  
    26    11    13 1   
    27    11    45 1   
    28    11    46 1   
    29    12    14 1   
    30    12    32 1   
    31    12    47 1   
    32    13    48 1   
    33    13    49 1   
    34    14    30 2   
    35    15    17 1   
    36    15    50 1   
    37    15    51 1   
    38    16    24 1   
    39    16    33 1   
    40    16    36 1   
    41    17    52 1   
    42    17    53 1   
    43    18    19 1   
    44    18    54 1   
    45    18    55 1   
    46    19    20 ar  
    47    20    21 ar  
    48    20    56 1   
    49    21    22 ar  
    50    21    57 1   
    51    22    23 ar  
    52    23    24 ar  
    53    25    26 1   
    54    26    27 ar  
    55    26    31 ar  
    56    27    28 ar  
    57    27    58 1   
    58    28    29 ar  
    59    28    59 1   
    60    29    30 ar  
    61    29    60 1   
    62    30    31 ar  
    63    31    32 2   
    64    32    61 1   
    65    33    34 1   
    66    33    62 1   
    67    33    63 1   
    68    34    64 1   
    69    34    65 1   
    70    35    36 1   
    71    35    66 1   
    72    35    67 1   
    73    36    68 1   
    74    36    69 1   
@<TRIPOS>SUBSTRUCTURE
     1 0SD         1 TEMP              0 ****  ****    0 ROOT
