@<TRIPOS>MOLECULE
0SD
   69    74     1     0     0
SMALL
abcg2


@<TRIPOS>ATOM
      1 N            3.4210    -0.8900     1.4880 n3         1 0SD      -0.721600
      2 C            7.7830     0.8830    -0.8320 c3         1 0SD      -0.102100
      3 O            1.3380     3.7460    -1.3820 os         1 0SD      -0.446000
      4 C1           6.4750     0.3130    -1.3730 c3         1 0SD       0.190000
      5 N1           0.7110    -0.5330     1.2440 nb         1 0SD      -0.627000
      6 O1           5.7200     1.4330    -1.8230 oh         1 0SD      -0.660000
      7 C2           6.7950    -0.6090    -2.5510 c3         1 0SD      -0.102100
      8 N2          -2.3050     0.5990    -0.3660 nb         1 0SD      -0.307000
      9 C3           5.7130    -0.4580    -0.2680 c6         1 0SD      -0.083700
     10 N3          -2.8140    -1.3640     0.8490 nb         1 0SD      -0.223000
     11 C4           5.4370     0.3880     0.9760 c6         1 0SD      -0.071900
     12 N4          -6.8480    -2.6590     0.9960 na         1 0SD       0.009500
     13 C5           4.6690    -0.3950     2.0290 c6         1 0SD       0.174800
     14 N5          -7.6940    -1.8980     0.3230 nc         1 0SD      -0.291400
     15 C6           3.6510    -1.7740     0.3650 c6         1 0SD       0.174800
     16 N6          -0.2210     1.5060    -0.6010 nh         1 0SD      -0.755300
     17 C7           4.3950    -1.0630    -0.7550 c6         1 0SD      -0.071900
     18 C8           2.5530    -1.4700     2.4790 c3         1 0SD       0.133500
     19 C9           1.1160    -1.5060     2.0180 ca         1 0SD       0.331300
     20 C10          0.2400    -2.5310     2.4320 ca         1 0SD      -0.132000
     21 C11         -1.0690    -2.4900     2.0400 ca         1 0SD      -0.074000
     22 C12         -1.5130    -1.4410     1.2080 ca         1 0SD       0.016000
     23 C13         -0.5510    -0.4960     0.8090 ca         1 0SD       0.142000
     24 C14         -1.0180     0.5510    -0.0790 ca         1 0SD       0.438900
     25 C15         -3.1430    -0.3360     0.1080 cp         1 0SD       0.263500
     26 C16         -4.5640    -0.1910    -0.2580 cp         1 0SD      -0.098500
     27 C17         -4.9920     0.8530    -1.0440 ca         1 0SD      -0.075000
     28 C18         -6.3520     1.0220    -1.4060 ca         1 0SD      -0.119000
     29 C19         -7.3200     0.1500    -0.9950 ca         1 0SD      -0.060000
     30 C20         -6.9180    -0.9370    -0.1860 ca         1 0SD      -0.082000
     31 C21         -5.5530    -1.1140     0.1840 ca         1 0SD      -0.118000
     32 C22         -5.5720    -2.2680     0.9640 cc         1 0SD      -0.171100
     33 C23         -0.8030     2.5900    -1.3810 c6         1 0SD       0.173300
     34 C24         -0.0390     3.8760    -1.1170 c6         1 0SD       0.139600
     35 C25          1.8980     2.7170    -0.5990 c6         1 0SD       0.139600
     36 C26          1.2160     1.3850    -0.8390 c6         1 0SD       0.173300
     37 H2           8.3710     1.3240    -1.6390 hc         1 0SD       0.041867
     38 H3           7.6180     1.6550    -0.0820 hc         1 0SD       0.041867
     39 H4           8.3830     0.0960    -0.3750 hc         1 0SD       0.041867
     40 H5           4.9610     1.1110    -2.3190 ho         1 0SD       0.440000
     41 H6           7.3630    -1.4810    -2.2240 hc         1 0SD       0.041867
     42 H7           5.8960    -0.9750    -3.0500 hc         1 0SD       0.041867
     43 H8           7.3930    -0.0810    -3.2960 hc         1 0SD       0.041867
     44 H9           6.3610    -1.2920     0.0350 hc         1 0SD       0.046700
     45 H10          6.3680     0.7400     1.4240 hc         1 0SD       0.048950
     46 H11          4.8580     1.2730     0.6980 hc         1 0SD       0.048950
     47 H12         -7.2000    -3.4710     1.4820 hn         1 0SD       0.368000
     48 H13          4.4500     0.2570     2.8780 h1         1 0SD       0.029700
     49 H14          5.3050    -1.2130     2.4140 h1         1 0SD       0.029700
     50 H15          4.2200    -2.6700     0.6730 h1         1 0SD       0.029700
     51 H16          2.6920    -2.1300    -0.0170 h1         1 0SD       0.029700
     52 H17          3.7400    -0.2830    -1.1580 hc         1 0SD       0.048950
     53 H18          4.5610    -1.7830    -1.5580 hc         1 0SD       0.048950
     54 H19          2.8600    -2.4830     2.7890 h1         1 0SD       0.042700
     55 H20          2.5950    -0.8550     3.3850 h1         1 0SD       0.042700
     56 H21          0.6060    -3.3370     3.0550 ha         1 0SD       0.124000
     57 H22         -1.7760    -3.2480     2.3530 ha         1 0SD       0.133000
     58 H23         -4.2690     1.5720    -1.4010 ha         1 0SD       0.129000
     59 H24         -6.6200     1.8690    -2.0250 ha         1 0SD       0.112000
     60 H25         -8.3580     0.2800    -1.2720 ha         1 0SD       0.126000
     61 H26         -4.7960    -2.8100     1.4740 h4         1 0SD       0.243000
     62 H27         -0.7730     2.3410    -2.4480 h1         1 0SD       0.073200
     63 H28         -1.8450     2.7290    -1.1050 h1         1 0SD       0.073200
     64 H29         -0.2030     4.1850    -0.0750 h1         1 0SD       0.057200
     65 H30         -0.4270     4.6640    -1.7640 h1         1 0SD       0.057200
     66 H31          2.9540     2.6350    -0.8660 h1         1 0SD       0.057200
     67 H32          1.8380     2.9670     0.4690 h1         1 0SD       0.057200
     68 H33          1.6590     0.6430    -0.1840 h1         1 0SD       0.073200
     69 H34          1.3690     1.0730    -1.8790 h1         1 0SD       0.073200
@<TRIPOS>BOND
     1     1    13 1   
     2     1    15 1   
     3     1    18 1   
     4     2     4 1   
     5     2    37 1   
     6     2    38 1   
     7     2    39 1   
     8     3    34 1   
     9     3    35 1   
    10     4     6 1   
    11     4     7 1   
    12     4     9 1   
    13     5    19 ar  
    14     5    23 ar  
    15     6    40 1   
    16     7    41 1   
    17     7    42 1   
    18     7    43 1   
    19     8    24 ar  
    20     8    25 ar  
    21     9    11 1   
    22     9    17 1   
    23     9    44 1   
    24    10    22 ar  
    25    10    25 ar  
    26    11    13 1   
    27    11    45 1   
    28    11    46 1   
    29    12    14 1   
    30    12    32 1   
    31    12    47 1   
    32    13    48 1   
    33    13    49 1   
    34    14    30 2   
    35    15    17 1   
    36    15    50 1   
    37    15    51 1   
    38    16    24 1   
    39    16    33 1   
    40    16    36 1   
    41    17    52 1   
    42    17    53 1   
    43    18    19 1   
    44    18    54 1   
    45    18    55 1   
    46    19    20 ar  
    47    20    21 ar  
    48    20    56 1   
    49    21    22 ar  
    50    21    57 1   
    51    22    23 ar  
    52    23    24 ar  
    53    25    26 1   
    54    26    27 ar  
    55    26    31 ar  
    56    27    28 ar  
    57    27    58 1   
    58    28    29 ar  
    59    28    59 1   
    60    29    30 ar  
    61    29    60 1   
    62    30    31 ar  
    63    31    32 2   
    64    32    61 1   
    65    33    34 1   
    66    33    62 1   
    67    33    63 1   
    68    34    64 1   
    69    34    65 1   
    70    35    36 1   
    71    35    66 1   
    72    35    67 1   
    73    36    68 1   
    74    36    69 1   
@<TRIPOS>SUBSTRUCTURE
     1 0SD         1 TEMP              0 ****  ****    0 ROOT
