@<TRIPOS>MOLECULE
0SE
   66    70     1     0     0
SMALL
bcc


@<TRIPOS>ATOM
      1 C1           6.5330     0.6360     2.6840 c3         1 0SE      -0.101600
      2 C2           6.2940    -0.3470     1.5430 c3         1 0SE       0.168800
      3 C3           5.5920    -1.5950     2.0800 c3         1 0SE      -0.101600
      4 C4           5.5070     0.3320     0.3990 c6         1 0SE      -0.087700
      5 C5           5.2870    -0.5710    -0.8160 c6         1 0SE      -0.071900
      6 C6           4.5480     0.1630    -1.9240 c6         1 0SE       0.169800
      7 N7           3.2720     0.6630    -1.4520 n3         1 0SE      -0.714600
      8 C8           3.4470     1.5760    -0.3390 c6         1 0SE       0.169800
      9 C9           4.1550     0.9030     0.8260 c6         1 0SE      -0.071900
     10 C10          2.4850     1.2400    -2.5110 c3         1 0SE       0.128500
     11 C11          1.0330     1.4070    -2.1350 ca         1 0SE       0.397600
     12 C12          0.2590     2.4430    -2.6980 ca         1 0SE      -0.215300
     13 C13         -1.0670     2.5360    -2.3800 ca         1 0SE      -0.155300
     14 C14         -1.6330     1.6110    -1.4760 ca         1 0SE       0.351300
     15 C15         -0.7680     0.6410    -0.9370 ca         1 0SE       0.136000
     16 N16          0.5160     0.5480    -1.2970 nb         1 0SE      -0.634000
     17 C17         -1.3610    -0.2820     0.0140 ca         1 0SE       0.711900
     18 N18         -2.6620    -0.1960     0.2370 nb         1 0SE      -0.847000
     19 C19         -3.3910     0.7550    -0.3600 cp         1 0SE       0.810500
     20 N20         -2.9500     1.6770    -1.1800 nb         1 0SE      -0.752000
     21 C21         -4.8240     0.7620    -0.0400 cp         1 0SE      -0.464100
     22 C22         -5.4120    -0.1660     0.8170 ca         1 0SE       0.524200
     23 N23         -6.6960    -0.1680     1.1120 nb         1 0SE      -0.786500
     24 C24         -7.4450     0.7860     0.5420 ca         1 0SE       0.919900
     25 N25         -6.9900     1.7320    -0.2940 nb         1 0SE      -0.786500
     26 C26         -5.7030     1.7060    -0.5690 ca         1 0SE       0.524200
     27 N27         -8.7540     0.7900     0.8200 nv         1 0SE      -0.957500
     28 N28         -0.6810    -1.2370     0.6720 nh         1 0SE      -0.761300
     29 C29         -1.3770    -2.2390     1.4680 c6         1 0SE       0.176300
     30 C30         -0.8580    -3.6200     1.1010 c6         1 0SE       0.114900
     31 O31          0.5380    -3.7270     1.2590 os         1 0SE      -0.402600
     32 C32          1.2150    -2.7520     0.4980 c6         1 0SE       0.114900
     33 C33          0.7630    -1.3460     0.8430 c6         1 0SE       0.176300
     34 O34          7.5950    -0.6980     1.0780 oh         1 0SE      -0.600800
     35 H1           5.6020     0.9030     3.1830 hc         1 0SE       0.042033
     36 H2           7.1900     0.1940     3.4360 hc         1 0SE       0.042033
     37 H3           6.9980     1.5570     2.3280 hc         1 0SE       0.042033
     38 H4           4.5850    -1.3740     2.4350 hc         1 0SE       0.042033
     39 H5           5.5080    -2.3760     1.3210 hc         1 0SE       0.042033
     40 H6           6.1520    -2.0100     2.9200 hc         1 0SE       0.042033
     41 H7           6.1230     1.1800     0.0680 hc         1 0SE       0.056700
     42 H8           6.2350    -0.9320    -1.2230 hc         1 0SE       0.046200
     43 H9           4.7030    -1.4520    -0.5330 hc         1 0SE       0.046200
     44 H10          5.1890     0.9760    -2.3120 h1         1 0SE       0.032200
     45 H11          4.3690    -0.5210    -2.7570 h1         1 0SE       0.032200
     46 H13          4.0170     2.4730    -0.6450 h1         1 0SE       0.032200
     47 H14          2.4700     1.9260    -0.0030 h1         1 0SE       0.032200
     48 H15          3.5110     0.1100     1.2190 hc         1 0SE       0.046200
     49 H16          4.2740     1.6390     1.6220 hc         1 0SE       0.046200
     50 H17          2.8770     2.2120    -2.8570 h1         1 0SE       0.042200
     51 H18          2.5290     0.5750    -3.3800 h1         1 0SE       0.042200
     52 H19          0.7160     3.1510    -3.3780 ha         1 0SE       0.143000
     53 H20         -1.6970     3.3070    -2.8040 ha         1 0SE       0.156000
     54 H21         -4.8070    -0.9380     1.2810 h4         1 0SE       0.039600
     55 H22         -5.3350     2.4720    -1.2430 h4         1 0SE       0.039600
     56 H23         -9.1280     0.1540     1.5010 hn         1 0SE       0.449800
     57 H24         -9.3430     1.5280     0.4770 hn         1 0SE       0.449800
     58 H25         -1.2120    -2.0390     2.5320 h1         1 0SE       0.077450
     59 H26         -2.4460    -2.1910     1.2830 h1         1 0SE       0.077450
     60 H27         -1.3190    -4.3660     1.7490 h1         1 0SE       0.055450
     61 H28         -1.1490    -3.8460     0.0650 h1         1 0SE       0.055450
     62 H29          2.2810    -2.8540     0.7100 h1         1 0SE       0.055450
     63 H30          1.0660    -2.9240    -0.5770 h1         1 0SE       0.055450
     64 H31          1.2910    -0.6390     0.2130 h1         1 0SE       0.077450
     65 H32          0.9960    -1.1290     1.8920 h1         1 0SE       0.077450
     66 H33          7.5100    -1.4110     0.4370 ho         1 0SE       0.400000
@<TRIPOS>BOND
     1     1     2 1   
     2     1    35 1   
     3     1    36 1   
     4     1    37 1   
     5     2     3 1   
     6     2     4 1   
     7     2    34 1   
     8     3    38 1   
     9     3    39 1   
    10     3    40 1   
    11     4     5 1   
    12     4     9 1   
    13     4    41 1   
    14     5     6 1   
    15     5    42 1   
    16     5    43 1   
    17     6     7 1   
    18     6    44 1   
    19     6    45 1   
    20     7     8 1   
    21     7    10 1   
    22     8     9 1   
    23     8    46 1   
    24     8    47 1   
    25     9    48 1   
    26     9    49 1   
    27    10    11 1   
    28    10    50 1   
    29    10    51 1   
    30    11    12 ar  
    31    11    16 ar  
    32    12    13 ar  
    33    12    52 1   
    34    13    14 ar  
    35    13    53 1   
    36    14    15 ar  
    37    14    20 ar  
    38    15    16 ar  
    39    15    17 ar  
    40    17    18 ar  
    41    17    28 1   
    42    18    19 ar  
    43    19    20 ar  
    44    19    21 1   
    45    21    22 ar  
    46    21    26 ar  
    47    22    23 ar  
    48    22    54 1   
    49    23    24 ar  
    50    24    25 ar  
    51    24    27 1   
    52    25    26 ar  
    53    26    55 1   
    54    27    56 1   
    55    27    57 1   
    56    28    29 1   
    57    28    33 1   
    58    29    30 1   
    59    29    58 1   
    60    29    59 1   
    61    30    31 1   
    62    30    60 1   
    63    30    61 1   
    64    31    32 1   
    65    32    33 1   
    66    32    62 1   
    67    32    63 1   
    68    33    64 1   
    69    33    65 1   
    70    34    66 1   
@<TRIPOS>SUBSTRUCTURE
     1 0SE         1 TEMP              0 ****  ****    0 ROOT
