@<TRIPOS>MOLECULE
0SE
   66    70     1     0     0
SMALL
No Charge or Current Charge


@<TRIPOS>ATOM
      1 C1           7.4510     2.3180     2.0010 c3         1 0SE      -0.101600
      2 C2           7.1470     0.9030     1.4460 c3         1 0SE       0.192000
      3 C3           6.7660    -0.0310     2.6240 c3         1 0SE      -0.101600
      4 C4           6.0730     0.9410     0.2870 c6         1 0SE      -0.087700
      5 C5           5.8330    -0.4370    -0.4070 c6         1 0SE      -0.071900
      6 C6           4.8180    -0.3150    -1.5690 c6         1 0SE       0.169800
      7 N7           3.5190     0.2440    -1.1090 n3         1 0SE      -0.714600
      8 C8           3.7020     1.5790    -0.4750 c6         1 0SE       0.169800
      9 C9           4.6900     1.5200     0.7160 c6         1 0SE      -0.071900
     10 C10          2.4910     0.2440    -2.1960 c3         1 0SE       0.128500
     11 C11          1.0650     0.6520    -1.7810 ca         1 0SE       0.332300
     12 C12          0.6230     1.9750    -1.9470 ca         1 0SE      -0.132000
     13 C13         -0.6840     2.3140    -1.5650 ca         1 0SE      -0.072000
     14 C14         -1.5200     1.3210    -1.0240 ca         1 0SE       0.023000
     15 C15         -1.0090    -0.0010    -0.8770 ca         1 0SE       0.136000
     16 N16          0.2640    -0.3140    -1.2670 nb         1 0SE      -0.634000
     17 C17         -1.9220    -0.9580    -0.3160 ca         1 0SE       0.448900
     18 N18         -3.1810    -0.6160     0.0230 nb         1 0SE      -0.321000
     19 C19         -3.5640     0.6570    -0.1570 cp         1 0SE       0.284500
     20 N20         -2.7810     1.6290    -0.6610 nb         1 0SE      -0.226000
     21 C21         -4.9640     1.0190     0.2280 cp         1 0SE      -0.333500
     22 C22         -5.8720     0.0700     0.7690 ca         1 0SE       0.195900
     23 N23         -7.1320     0.3950     1.1160 nb         1 0SE      -0.260500
     24 C24         -7.4860     1.6710     0.9220 ca         1 0SE       0.393900
     25 N25         -6.7360     2.6610     0.4260 nb         1 0SE      -0.260500
     26 C26         -5.4760     2.3350     0.0790 ca         1 0SE       0.195900
     27 N27         -8.7520     1.9990     1.2740 nv         1 0SE      -1.067900
     28 N28         -1.5950    -2.3290    -0.0820 nh         1 0SE      -0.761300
     29 C29         -2.6570    -3.3930    -0.1100 c6         1 0SE       0.176300
     30 C30         -2.0530    -4.8120    -0.3320 c6         1 0SE       0.138100
     31 O31         -0.9970    -5.0780     0.6210 os         1 0SE      -0.449000
     32 C32          0.0870    -4.1240     0.5270 c6         1 0SE       0.138100
     33 C33         -0.4260    -2.6790     0.7940 c6         1 0SE       0.176300
     34 O34          8.3850     0.4180     0.9220 oh         1 0SE      -0.663000
     35 H1           6.5950     2.7230     2.5520 hc         1 0SE       0.042033
     36 H2           8.3030     2.2930     2.6920 hc         1 0SE       0.042033
     37 H3           7.6970     3.0130     1.1890 hc         1 0SE       0.042033
     38 H4           5.8430     0.3030     3.1110 hc         1 0SE       0.042033
     39 H5           6.6220    -1.0650     2.2920 hc         1 0SE       0.042033
     40 H6           7.5550    -0.0370     3.3860 hc         1 0SE       0.042033
     41 H7           6.4880     1.6180    -0.4740 hc         1 0SE       0.056700
     42 H8           6.7730    -0.8430    -0.8030 hc         1 0SE       0.046200
     43 H9           5.4510    -1.1710     0.3150 hc         1 0SE       0.046200
     44 H10          5.2480     0.3200    -2.3570 h1         1 0SE       0.032200
     45 H11          4.6670    -1.3130    -2.0070 h1         1 0SE       0.032200
     46 H13          4.0740     2.3030    -1.2150 h1         1 0SE       0.032200
     47 H14          2.7420     1.9630    -0.1020 h1         1 0SE       0.032200
     48 H15          4.2480     0.9060     1.5120 hc         1 0SE       0.046200
     49 H16          4.8010     2.5320     1.1240 hc         1 0SE       0.046200
     50 H17          2.8150     0.9120    -3.0060 h1         1 0SE       0.042200
     51 H18          2.4310    -0.7610    -2.6350 h1         1 0SE       0.042200
     52 H19          1.2860     2.7270    -2.3660 ha         1 0SE       0.125000
     53 H20         -1.0450     3.3330    -1.6890 ha         1 0SE       0.138000
     54 H21         -5.5890    -0.9700     0.9280 h4         1 0SE       0.039600
     55 H22         -4.8700     3.1450    -0.3240 h4         1 0SE       0.039600
     56 H23         -9.2740     1.3500     1.8590 hn         1 0SE       0.505000
     57 H24         -8.9930     2.9840     1.3620 hn         1 0SE       0.505000
     58 H25         -3.2210    -3.3940     0.8340 h1         1 0SE       0.077450
     59 H26         -3.3770    -3.1980    -0.9190 h1         1 0SE       0.077450
     60 H27         -2.8390    -5.5730    -0.2210 h1         1 0SE       0.055450
     61 H28         -1.6480    -4.8890    -1.3510 h1         1 0SE       0.055450
     62 H29          0.8630    -4.3850     1.2610 h1         1 0SE       0.055450
     63 H30          0.5350    -4.1810    -0.4760 h1         1 0SE       0.055450
     64 H31          0.4140    -1.9860     0.6470 h1         1 0SE       0.077450
     65 H32         -0.7160    -2.6020     1.8520 h1         1 0SE       0.077450
     66 H33          8.2370    -0.5170     0.6690 ho         1 0SE       0.439000
@<TRIPOS>BOND
     1     1     2 1   
     2     1    35 1   
     3     1    36 1   
     4     1    37 1   
     5     2     3 1   
     6     2     4 1   
     7     2    34 1   
     8     3    38 1   
     9     3    39 1   
    10     3    40 1   
    11     4     5 1   
    12     4     9 1   
    13     4    41 1   
    14     5     6 1   
    15     5    42 1   
    16     5    43 1   
    17     6     7 1   
    18     6    44 1   
    19     6    45 1   
    20     7     8 1   
    21     7    10 1   
    22     8     9 1   
    23     8    46 1   
    24     8    47 1   
    25     9    48 1   
    26     9    49 1   
    27    10    11 1   
    28    10    50 1   
    29    10    51 1   
    30    11    12 ar  
    31    11    16 ar  
    32    12    13 ar  
    33    12    52 1   
    34    13    14 ar  
    35    13    53 1   
    36    14    15 ar  
    37    14    20 ar  
    38    15    16 ar  
    39    15    17 ar  
    40    17    18 ar  
    41    17    28 1   
    42    18    19 ar  
    43    19    20 ar  
    44    19    21 1   
    45    21    22 ar  
    46    21    26 ar  
    47    22    23 ar  
    48    22    54 1   
    49    23    24 ar  
    50    24    25 ar  
    51    24    27 1   
    52    25    26 ar  
    53    26    55 1   
    54    27    56 1   
    55    27    57 1   
    56    28    29 1   
    57    28    33 1   
    58    29    30 1   
    59    29    58 1   
    60    29    59 1   
    61    30    31 1   
    62    30    60 1   
    63    30    61 1   
    64    31    32 1   
    65    32    33 1   
    66    32    62 1   
    67    32    63 1   
    68    33    64 1   
    69    33    65 1   
    70    34    66 1   
@<TRIPOS>SUBSTRUCTURE
     1 0SE         1 TEMP              0 ****  ****    0 ROOT
