@<TRIPOS>MOLECULE
0SF
   59    61     1     0     0
SMALL
No Charge or Current Charge


@<TRIPOS>ATOM
      1 C1           2.6230    -1.9090     2.4340 c3         1 0SF      -0.087100
      2 C2           3.1920    -2.3700     1.0780 c3         1 0SF      -0.033100
      3 C3           2.2600    -3.3400     0.3530 ca         1 0SF      -0.051300
      4 C4           1.4440    -2.8570    -0.6910 ca         1 0SF      -0.104000
      5 C5           0.5570    -3.7180    -1.3670 ca         1 0SF       0.114100
      6 C6           0.5020    -5.0760    -1.0200 ca         1 0SF      -0.111000
      7 C7           1.3150    -5.5700     0.0140 ca         1 0SF      -0.094000
      8 C8           2.1900    -4.7110     0.7010 ca         1 0SF       0.116000
      9 Cl1          3.1930    -5.3910     1.9830 cl         1 0SF      -0.204000
     10 O1          -0.2290    -3.2720    -2.4090 os         1 0SF      -0.359400
     11 C9          -0.9100    -2.0740    -2.4000 ca         1 0SF       0.392300
     12 C10         -1.3400    -1.5560    -3.6270 ca         1 0SF      -0.285000
     13 C11         -2.0470    -0.3480    -3.6140 ca         1 0SF       0.167900
     14 N1          -2.3070     0.2970    -2.4630 nb         1 0SF      -0.272000
     15 C12         -1.8640    -0.2770    -1.3240 ca         1 0SF       0.420900
     16 N2          -1.1850    -1.4360    -1.2470 nb         1 0SF      -0.317000
     17 N3          -2.1050     0.4190    -0.1080 nh         1 0SF      -0.773300
     18 C13         -1.6030    -0.0790     1.2030 c3         1 0SF       0.288100
     19 C14         -0.2990     0.5710     1.6680 ca         1 0SF      -0.110300
     20 C15         -0.0980     0.8270     3.0390 ca         1 0SF      -0.093000
     21 C16          1.1020     1.4060     3.4840 ca         1 0SF      -0.107000
     22 C17          2.1090     1.7350     2.5620 ca         1 0SF      -0.090000
     23 C18          1.9270     1.4900     1.1910 ca         1 0SF       0.078100
     24 C19          0.7200     0.9030     0.7470 ca         1 0SF      -0.073000
     25 O2           2.9600     1.8470     0.3410 os         1 0SF      -0.387100
     26 C20          2.9060     1.7370    -1.1000 c3         1 0SF       0.340000
     27 C21          4.2390     2.3010    -1.6620 c3         1 0SF       0.165300
     28 F1           5.3060     1.7060    -1.0730 f          1 0SF      -0.095500
     29 F2           4.3340     2.0860    -2.9970 f          1 0SF      -0.095500
     30 F3           2.7490     0.4520    -1.4990 f          1 0SF      -0.109500
     31 F4           1.8770     2.4600    -1.6040 f          1 0SF      -0.109500
     32 C22         -2.8140     1.7310    -0.0800 c3         1 0SF       0.207800
     33 C23         -4.3690     1.6400    -0.1770 c3         1 0SF       0.090300
     34 C24         -5.0340     3.0410    -0.3380 c3         1 0SF       0.263000
     35 F5          -4.7740     3.8330     0.7290 f          1 0SF      -0.113333
     36 F6          -4.5790     3.6720    -1.4440 f          1 0SF      -0.113333
     37 F7          -6.3780     2.9310    -0.4540 f          1 0SF      -0.113333
     38 O3          -4.9170     0.9330     0.9690 oh         1 0SF      -0.625000
     39 H2           1.6290    -1.4690     2.3020 hc         1 0SF       0.039033
     40 H3           2.5340    -2.7500     3.1310 hc         1 0SF       0.039033
     41 H4           3.2770    -1.1550     2.8880 hc         1 0SF       0.039033
     42 H6           3.3720    -1.4820     0.4600 hc         1 0SF       0.055200
     43 H5           4.1780    -2.8240     1.2350 hc         1 0SF       0.055200
     44 H7           1.5020    -1.8120    -0.9790 ha         1 0SF       0.138000
     45 H8          -0.1690    -5.7450    -1.5530 ha         1 0SF       0.131000
     46 H9           1.2710    -6.6230     0.2820 ha         1 0SF       0.132000
     47 H10         -1.1290    -2.0750    -4.5570 ha         1 0SF       0.152000
     48 H11         -2.4080     0.1120    -4.5330 h4         1 0SF       0.027100
     49 H12         -2.3720     0.1000     1.9670 h1         1 0SF       0.071200
     50 H13         -1.4660    -1.1680     1.1950 h1         1 0SF       0.071200
     51 H14         -0.8690     0.5730     3.7630 ha         1 0SF       0.113000
     52 H15          1.2520     1.5990     4.5440 ha         1 0SF       0.122000
     53 H16          3.0360     2.1840     2.9100 ha         1 0SF       0.131000
     54 H17          0.5570     0.7000    -0.3050 ha         1 0SF       0.153000
     55 H18          4.2900     3.3770    -1.4700 h2         1 0SF       0.090700
     56 H20         -2.5550     2.2750     0.8390 h1         1 0SF       0.073700
     57 H19         -2.4410     2.3620    -0.8990 h1         1 0SF       0.073700
     58 H1          -4.5970     1.0800    -1.0950 h1         1 0SF       0.127700
     59 H21         -4.8020     1.5070     1.7580 ho         1 0SF       0.448000
@<TRIPOS>BOND
     1     1     2 1   
     2     1    39 1   
     3     1    40 1   
     4     1    41 1   
     5     2     3 1   
     6     2    42 1   
     7     2    43 1   
     8     3     4 ar  
     9     3     8 ar  
    10     4     5 ar  
    11     4    44 1   
    12     5     6 ar  
    13     5    10 1   
    14     6     7 ar  
    15     6    45 1   
    16     7     8 ar  
    17     7    46 1   
    18     8     9 1   
    19    10    11 1   
    20    11    12 ar  
    21    11    16 ar  
    22    12    13 ar  
    23    12    47 1   
    24    13    14 ar  
    25    13    48 1   
    26    14    15 ar  
    27    15    16 ar  
    28    15    17 1   
    29    17    18 1   
    30    17    32 1   
    31    18    19 1   
    32    18    49 1   
    33    18    50 1   
    34    19    20 ar  
    35    19    24 ar  
    36    20    21 ar  
    37    20    51 1   
    38    21    22 ar  
    39    21    52 1   
    40    22    23 ar  
    41    22    53 1   
    42    23    24 ar  
    43    23    25 1   
    44    24    54 1   
    45    25    26 1   
    46    26    27 1   
    47    26    30 1   
    48    26    31 1   
    49    27    28 1   
    50    27    29 1   
    51    27    55 1   
    52    32    33 1   
    53    32    56 1   
    54    32    57 1   
    55    33    34 1   
    56    33    38 1   
    57    33    58 1   
    58    34    35 1   
    59    34    36 1   
    60    34    37 1   
    61    38    59 1   
@<TRIPOS>SUBSTRUCTURE
     1 0SF         1 TEMP              0 ****  ****    0 ROOT
