@<TRIPOS>MOLECULE
0SF
   59    61     1     0     0
SMALL
abcg2


@<TRIPOS>ATOM
      1 C1           4.0190    -2.2900     1.8230 c3         1 0SF      -0.087100
      2 C2           3.9640    -3.2520     0.6380 c3         1 0SF      -0.033100
      3 C3           2.5630    -3.4680     0.1430 ca         1 0SF      -0.051300
      4 C4           2.0790    -2.7190    -0.9300 ca         1 0SF      -0.104000
      5 C5           0.7920    -2.8990    -1.4020 ca         1 0SF       0.114100
      6 C6          -0.0620    -3.8170    -0.8130 ca         1 0SF      -0.111000
      7 C7           0.3930    -4.5580     0.2630 ca         1 0SF      -0.094000
      8 C8           1.6880    -4.3790     0.7280 ca         1 0SF       0.116000
      9 CL1          2.2110    -5.3480     2.0720 cl         1 0SF      -0.204000
     10 O1           0.4010    -2.2070    -2.5270 os         1 0SF      -0.359400
     11 C9          -0.5820    -1.2970    -2.4350 ca         1 0SF       0.392300
     12 C10         -1.1340    -0.8150    -3.6200 ca         1 0SF      -0.285000
     13 C11         -2.1480     0.1020    -3.4450 ca         1 0SF       0.167900
     14 N1          -2.5740     0.5170    -2.2570 nb         1 0SF      -0.272000
     15 C12         -1.9490     0.0040    -1.1960 ca         1 0SF       0.420900
     16 N2          -0.9660    -0.9010    -1.2500 nb         1 0SF      -0.317000
     17 N3          -2.3420     0.4250     0.0300 nh         1 0SF      -0.773300
     18 C13         -1.6430    -0.0070     1.2320 c3         1 0SF       0.288100
     19 C14         -0.4540     0.8720     1.5330 ca         1 0SF      -0.110300
     20 C15         -0.5830     1.9920     2.3490 ca         1 0SF      -0.093000
     21 C16          0.4970     2.8360     2.5680 ca         1 0SF      -0.107000
     22 C17          1.7210     2.5810     1.9680 ca         1 0SF      -0.090000
     23 C18          1.8430     1.4590     1.1650 ca         1 0SF       0.078100
     24 C19          0.7810     0.5990     0.9500 ca         1 0SF      -0.073000
     25 O2           3.0830     1.1620     0.6110 os         1 0SF      -0.387100
     26 C20          3.3290     1.5670    -0.6500 c3         1 0SF       0.340000
     27 C21          4.7590     1.1630    -1.0140 c3         1 0SF       0.165300
     28 F1           4.8500    -0.1860    -0.9890 f          1 0SF      -0.095500
     29 F2           5.0180     1.5710    -2.2740 f          1 0SF      -0.095500
     30 F3           2.4550     1.0340    -1.5320 f          1 0SF      -0.109500
     31 F4           3.2070     2.9060    -0.7760 f          1 0SF      -0.109500
     32 C22         -3.3530     1.4520     0.1450 c3         1 0SF       0.207800
     33 C23         -4.7600     0.8540     0.0430 c3         1 0SF       0.090300
     34 C24         -5.8290     1.9390     0.0740 c3         1 0SF       0.263000
     35 F5          -5.7970     2.6420     1.2180 f          1 0SF      -0.113333
     36 F6          -5.6740     2.8120    -0.9290 f          1 0SF      -0.113333
     37 F7          -7.0590     1.4270    -0.0310 f          1 0SF      -0.113333
     38 O3          -5.0160    -0.1100     1.0240 oh         1 0SF      -0.625000
     39 H2           3.6200    -1.3150     1.5490 hc         1 0SF       0.039033
     40 H3           3.4440    -2.6630     2.6710 hc         1 0SF       0.039033
     41 H4           5.0470    -2.1490     2.1550 hc         1 0SF       0.039033
     42 H6           4.5680    -2.8550    -0.1790 hc         1 0SF       0.055200
     43 H5           4.4150    -4.2060     0.9150 hc         1 0SF       0.055200
     44 H7           2.7280    -1.9940    -1.4050 ha         1 0SF       0.138000
     45 H8          -1.0660    -3.9680    -1.1870 ha         1 0SF       0.131000
     46 H9          -0.2600    -5.2810     0.7320 ha         1 0SF       0.132000
     47 H10         -0.8070    -1.1420    -4.5960 ha         1 0SF       0.152000
     48 H11         -2.6540     0.5210    -4.3070 h4         1 0SF       0.027100
     49 H12         -2.3490     0.0210     2.0610 h1         1 0SF       0.071200
     50 H13         -1.3340    -1.0440     1.1150 h1         1 0SF       0.071200
     51 H14         -1.5310     2.2040     2.8300 ha         1 0SF       0.113000
     52 H15          0.3870     3.7000     3.2100 ha         1 0SF       0.122000
     53 H16          2.5680     3.2310     2.1390 ha         1 0SF       0.131000
     54 H17          0.9010    -0.2840     0.3370 ha         1 0SF       0.153000
     55 H18          5.4900     1.5910    -0.3280 h2         1 0SF       0.090700
     56 H20         -3.2260     1.9500     1.1080 h1         1 0SF       0.073700
     57 H19         -3.2080     2.2100    -0.6230 h1         1 0SF       0.073700
     58 H1          -4.8510     0.3500    -0.9220 h1         1 0SF       0.127700
     59 H21         -4.8660     0.2610     1.9010 ho         1 0SF       0.448000
@<TRIPOS>BOND
     1     1     2 1   
     2     1    39 1   
     3     1    40 1   
     4     1    41 1   
     5     2     3 1   
     6     2    42 1   
     7     2    43 1   
     8     3     4 ar  
     9     3     8 ar  
    10     4     5 ar  
    11     4    44 1   
    12     5     6 ar  
    13     5    10 1   
    14     6     7 ar  
    15     6    45 1   
    16     7     8 ar  
    17     7    46 1   
    18     8     9 1   
    19    10    11 1   
    20    11    12 ar  
    21    11    16 ar  
    22    12    13 ar  
    23    12    47 1   
    24    13    14 ar  
    25    13    48 1   
    26    14    15 ar  
    27    15    16 ar  
    28    15    17 1   
    29    17    18 1   
    30    17    32 1   
    31    18    19 1   
    32    18    49 1   
    33    18    50 1   
    34    19    20 ar  
    35    19    24 ar  
    36    20    21 ar  
    37    20    51 1   
    38    21    22 ar  
    39    21    52 1   
    40    22    23 ar  
    41    22    53 1   
    42    23    24 ar  
    43    23    25 1   
    44    24    54 1   
    45    25    26 1   
    46    26    27 1   
    47    26    30 1   
    48    26    31 1   
    49    27    28 1   
    50    27    29 1   
    51    27    55 1   
    52    32    33 1   
    53    32    56 1   
    54    32    57 1   
    55    33    34 1   
    56    33    38 1   
    57    33    58 1   
    58    34    35 1   
    59    34    36 1   
    60    34    37 1   
    61    38    59 1   
@<TRIPOS>SUBSTRUCTURE
     1 0SF         1 TEMP              0 ****  ****    0 ROOT
