@<TRIPOS>MOLECULE
0SG
  120   120     1     0     0
SMALL
bcc


@<TRIPOS>ATOM
      1 C17         16.2420    -2.0130    -1.9640 c3         1 0SG      -0.087100
      2 C16         14.8400    -1.5400    -2.3200 c3         1 0SG      -0.076400
      3 C15         14.1070    -0.9190    -1.1370 c3         1 0SG      -0.074400
      4 C14         12.7000    -0.4440    -1.4790 c3         1 0SG      -0.076400
      5 C13         11.9700     0.1800    -0.2970 c3         1 0SG      -0.072400
      6 C12         10.5590     0.6420    -0.6380 c3         1 0SG      -0.077400
      7 C11          9.8220     1.2640     0.5410 c3         1 0SG      -0.066400
      8 C10          8.4040     1.7010     0.1960 c3         1 0SG      -0.088400
      9 C9           7.6510     2.3120     1.3710 c3         1 0SG      -0.056400
     10 C8           6.2180     2.6930     1.0180 c3         1 0SG      -0.089400
     11 C7           5.4360     3.2920     2.1800 c3         1 0SG      -0.064400
     12 C6           3.9870     3.5810     1.8100 c3         1 0SG      -0.079400
     13 C5           3.1660     4.1990     2.9450 c3         1 0SG      -0.044200
     14 C4           1.7570     4.4280     2.5000 c2         1 0SG      -0.147200
     15 C3           0.7030     3.7610     2.9580 c2         1 0SG      -0.219200
     16 C2          -0.6970     3.8620     2.4250 c3         1 0SG       0.176300
     17 O1          -0.8230     4.7190     1.3160 oh         1 0SG      -0.610800
     18 C1          -1.2460     2.4530     2.1250 c3         1 0SG       0.056700
     19 C           -0.3230     1.6460     1.2120 c3         1 0SG       0.127400
     20 O           -0.9530     0.4270     0.8800 os         1 0SG      -0.404600
     21 C43         -0.3060    -0.7370     1.2370 c6         1 0SG       0.304900
     22 O6           0.6060    -1.0430     0.2170 os         1 0SG      -0.411600
     23 C44         -1.3710    -1.8270     1.4100 c6         1 0SG       0.129100
     24 O3          -2.1360    -1.5960     2.5560 oh         1 0SG      -0.591800
     25 C45         -0.6830    -3.1760     1.5710 c6         1 0SG       0.215100
     26 O4          -1.6850    -4.1790     1.5900 os         1 0SG      -0.547500
     27 S           -1.5150    -5.4280     2.6440 s6         1 0SG       1.502300
     28 O9          -2.7210    -6.1950     2.3430 o          1 0SG      -0.716533
     29 O8          -0.2600    -6.0940     2.2810 o          1 0SG      -0.716533
     30 O10         -1.4900    -4.8300     3.9800 o          1 0SG      -0.716533
     31 C46          0.3260    -3.4250     0.4540 c6         1 0SG       0.088100
     32 O5          -0.3610    -3.5530    -0.7680 oh         1 0SG      -0.573800
     33 C47          1.3020    -2.2510     0.4340 c6         1 0SG       0.120100
     34 C48          2.3430    -2.3980    -0.6530 c3         1 0SG       0.196400
     35 O11          3.3880    -1.4710    -0.3980 os         1 0SG      -0.574500
     36 S1           4.3280    -1.0380    -1.6730 s6         1 0SG       1.507300
     37 O13          4.7140    -2.2940    -2.3230 o          1 0SG      -0.720200
     38 O14          3.4830    -0.1820    -2.5090 o          1 0SG      -0.720200
     39 O12          5.4190    -0.3430    -0.9940 o          1 0SG      -0.720200
     40 N           -2.5660     2.5650     1.5480 ns         1 0SG      -0.553900
     41 C18         -3.5750     1.7090     1.7640 c          1 0SG       0.680100
     42 O2          -3.5420     0.8270     2.6200 o          1 0SG      -0.611100
     43 C19         -4.7680     1.8940     0.8540 c3         1 0SG      -0.158400
     44 C20         -6.0710     1.3420     1.4110 c3         1 0SG      -0.065400
     45 C21         -7.2020     1.4190     0.3920 c3         1 0SG      -0.075400
     46 C22         -8.5190     0.8610     0.9170 c3         1 0SG      -0.074400
     47 C23         -9.6360     0.8940    -0.1190 c3         1 0SG      -0.073400
     48 C24        -10.9560     0.3340     0.3960 c3         1 0SG      -0.074400
     49 C25        -12.0640     0.3520    -0.6500 c3         1 0SG      -0.074400
     50 C26        -13.3860    -0.2090    -0.1410 c3         1 0SG      -0.075400
     51 C27        -14.4890    -0.1960    -1.1930 c3         1 0SG      -0.075400
     52 C28        -15.8110    -0.7630    -0.6920 c3         1 0SG      -0.075400
     53 C29        -16.9030    -0.7480    -1.7530 c3         1 0SG      -0.087100
     54 H1          16.8530    -1.1890    -1.5900 hc         1 0SG       0.026033
     55 H2          16.2140    -2.7790    -1.1870 hc         1 0SG       0.026033
     56 H3          16.7560    -2.4380    -2.8270 hc         1 0SG       0.026033
     57 H4          14.8960    -0.8100    -3.1340 hc         1 0SG       0.037700
     58 H5          14.2550    -2.3810    -2.7060 hc         1 0SG       0.037700
     59 H6          14.0550    -1.6480    -0.3210 hc         1 0SG       0.032700
     60 H7          14.6920    -0.0750    -0.7520 hc         1 0SG       0.032700
     61 H8          12.7530     0.2820    -2.2970 hc         1 0SG       0.039700
     62 H9          12.1160    -1.2890    -1.8610 hc         1 0SG       0.039700
     63 H10         11.9230    -0.5450     0.5240 hc         1 0SG       0.029700
     64 H11         12.5500     1.0290     0.0810 hc         1 0SG       0.029700
     65 H12         10.6040     1.3660    -1.4600 hc         1 0SG       0.045200
     66 H13          9.9810    -0.2090    -1.0160 hc         1 0SG       0.045200
     67 H14          9.7870     0.5440     1.3670 hc         1 0SG       0.023700
     68 H15         10.3910     2.1240     0.9130 hc         1 0SG       0.023700
     69 H16          8.4380     2.4240    -0.6270 hc         1 0SG       0.063700
     70 H17          7.8400     0.8410    -0.1810 hc         1 0SG       0.063700
     71 H18          7.6380     1.5990     2.2040 hc         1 0SG       0.018200
     72 H19          8.1910     3.1940     1.7340 hc         1 0SG       0.018200
     73 H20          6.2300     3.4080     0.1870 hc         1 0SG       0.067200
     74 H21          5.6960     1.8070     0.6440 hc         1 0SG       0.067200
     75 H22          5.4600     2.6040     3.0330 hc         1 0SG       0.023200
     76 H23          5.9230     4.2140     2.5160 hc         1 0SG       0.023200
     77 H24          3.9600     4.2500     0.9430 hc         1 0SG       0.052700
     78 H25          3.5020     2.6520     1.4930 hc         1 0SG       0.052700
     79 H26          3.1830     3.5410     3.8190 hc         1 0SG       0.038700
     80 H27          3.6260     5.1450     3.2460 hc         1 0SG       0.038700
     81 H28          1.6330     5.1540     1.7000 ha         1 0SG       0.114000
     82 H30          0.8360     3.0420     3.7640 ha         1 0SG       0.134000
     83 H32         -1.3460     4.2890     3.1980 h1         1 0SG       0.077700
     84 H33         -0.1660     4.4830     0.6520 ho         1 0SG       0.412000
     85 H34         -1.3350     1.9250     3.0770 h1         1 0SG       0.090700
     86 H35         -0.1080     2.1930     0.2870 h1         1 0SG       0.049200
     87 H36          0.6350     1.4750     1.7120 h1         1 0SG       0.049200
     88 H37          0.2350    -0.6200     2.1960 h2         1 0SG       0.018700
     89 H38         -1.9860    -1.8440     0.4970 h1         1 0SG       0.067700
     90 H39         -2.5820    -0.7340     2.4870 ho         1 0SG       0.423000
     91 H40         -0.1300    -3.1580     2.5200 h1         1 0SG       0.052700
     92 H41          0.8870    -4.3340     0.6950 h1         1 0SG       0.072700
     93 H42          0.1090    -4.1790    -1.3250 ho         1 0SG       0.392000
     94 H43          1.8190    -2.2320     1.4090 h1         1 0SG       0.047700
     95 H44          2.7350    -3.4190    -0.6400 h1         1 0SG       0.042700
     96 H45          1.8790    -2.2250    -1.6290 h1         1 0SG       0.042700
     97 H46         -2.6750     3.2410     0.8070 hn         1 0SG       0.311500
     98 H47         -4.8790     2.9490     0.5910 hc         1 0SG       0.054700
     99 H48         -4.5240     1.3800    -0.0840 hc         1 0SG       0.054700
    100 H49         -5.9290     0.3020     1.7130 hc         1 0SG       0.057700
    101 H50         -6.3520     1.8920     2.3140 hc         1 0SG       0.057700
    102 H51         -7.3470     2.4590     0.0810 hc         1 0SG       0.033200
    103 H52         -6.9100     0.8710    -0.5100 hc         1 0SG       0.033200
    104 H53         -8.3670    -0.1710     1.2510 hc         1 0SG       0.041700
    105 H54         -8.8270     1.4250     1.8040 hc         1 0SG       0.041700
    106 H55         -9.7870     1.9250    -0.4560 hc         1 0SG       0.034700
    107 H56         -9.3230     0.3290    -1.0040 hc         1 0SG       0.034700
    108 H57        -10.8030    -0.6950     0.7420 hc         1 0SG       0.038700
    109 H58        -11.2750     0.9040     1.2750 hc         1 0SG       0.038700
    110 H59        -12.2170     1.3800    -0.9970 hc         1 0SG       0.035200
    111 H60        -11.7420    -0.2180    -1.5280 hc         1 0SG       0.035200
    112 H61        -13.2330    -1.2360     0.2090 hc         1 0SG       0.036700
    113 H62        -13.7110     0.3640     0.7350 hc         1 0SG       0.036700
    114 H63        -14.6450     0.8310    -1.5410 hc         1 0SG       0.035700
    115 H64        -14.1610    -0.7660    -2.0700 hc         1 0SG       0.035700
    116 H65        -15.6560    -1.7890    -0.3440 hc         1 0SG       0.036700
    117 H66        -16.1410    -0.1940     0.1840 hc         1 0SG       0.036700
    118 H67        -17.1200     0.2700    -2.0840 hc         1 0SG       0.028367
    119 H68        -16.6030    -1.3210    -2.6320 hc         1 0SG       0.028367
    120 H69        -17.8330    -1.1790    -1.3800 hc         1 0SG       0.028367
@<TRIPOS>BOND
     1     1     2 1   
     2     1    54 1   
     3     1    55 1   
     4     1    56 1   
     5     2     3 1   
     6     2    57 1   
     7     2    58 1   
     8     3     4 1   
     9     3    59 1   
    10     3    60 1   
    11     4     5 1   
    12     4    61 1   
    13     4    62 1   
    14     5     6 1   
    15     5    63 1   
    16     5    64 1   
    17     6     7 1   
    18     6    65 1   
    19     6    66 1   
    20     7     8 1   
    21     7    67 1   
    22     7    68 1   
    23     8     9 1   
    24     8    69 1   
    25     8    70 1   
    26     9    10 1   
    27     9    71 1   
    28     9    72 1   
    29    10    11 1   
    30    10    73 1   
    31    10    74 1   
    32    11    12 1   
    33    11    75 1   
    34    11    76 1   
    35    12    13 1   
    36    12    77 1   
    37    12    78 1   
    38    13    14 1   
    39    13    79 1   
    40    13    80 1   
    41    14    15 2   
    42    14    81 1   
    43    15    16 1   
    44    15    82 1   
    45    16    17 1   
    46    16    18 1   
    47    16    83 1   
    48    17    84 1   
    49    18    19 1   
    50    18    40 1   
    51    18    85 1   
    52    19    20 1   
    53    19    86 1   
    54    19    87 1   
    55    20    21 1   
    56    21    22 1   
    57    21    23 1   
    58    21    88 1   
    59    22    33 1   
    60    23    24 1   
    61    23    25 1   
    62    23    89 1   
    63    24    90 1   
    64    25    26 1   
    65    25    31 1   
    66    25    91 1   
    67    26    27 1   
    68    27    28 1   
    69    27    29 1   
    70    27    30 1   
    71    31    32 1   
    72    31    33 1   
    73    31    92 1   
    74    32    93 1   
    75    33    34 1   
    76    33    94 1   
    77    34    35 1   
    78    34    95 1   
    79    34    96 1   
    80    35    36 1   
    81    36    37 1   
    82    36    38 1   
    83    36    39 1   
    84    40    41 1   
    85    40    97 1   
    86    41    42 2   
    87    41    43 1   
    88    43    44 1   
    89    43    98 1   
    90    43    99 1   
    91    44    45 1   
    92    44   100 1   
    93    44   101 1   
    94    45    46 1   
    95    45   102 1   
    96    45   103 1   
    97    46    47 1   
    98    46   104 1   
    99    46   105 1   
   100    47    48 1   
   101    47   106 1   
   102    47   107 1   
   103    48    49 1   
   104    48   108 1   
   105    48   109 1   
   106    49    50 1   
   107    49   110 1   
   108    49   111 1   
   109    50    51 1   
   110    50   112 1   
   111    50   113 1   
   112    51    52 1   
   113    51   114 1   
   114    51   115 1   
   115    52    53 1   
   116    52   116 1   
   117    52   117 1   
   118    53   118 1   
   119    53   119 1   
   120    53   120 1   
@<TRIPOS>SUBSTRUCTURE
     1 0SG         1 TEMP              0 ****  ****    0 ROOT
