@<TRIPOS>MOLECULE
0SG
  120   120     1     0     0
SMALL
No Charge or Current Charge


@<TRIPOS>ATOM
      1 C17         16.8700     0.5120     2.0240 c3         1 0SG      -0.087100
      2 C16         15.5570     0.2480     1.2630 c3         1 0SG      -0.076400
      3 C15         14.3230     0.8800     1.9440 c3         1 0SG      -0.074400
      4 C14         13.0090     0.6200     1.1760 c3         1 0SG      -0.076400
      5 C13         11.7760     1.2600     1.8520 c3         1 0SG      -0.072400
      6 C12         10.4660     1.0150     1.0720 c3         1 0SG      -0.077400
      7 C11          9.2340     1.6700     1.7360 c3         1 0SG      -0.066400
      8 C10          7.9300     1.4480     0.9380 c3         1 0SG      -0.088400
      9 C9           6.7000     2.1240     1.5820 c3         1 0SG      -0.056400
     10 C8           5.4090     1.9310     0.7580 c3         1 0SG      -0.089400
     11 C7           4.1790     2.6260     1.3790 c3         1 0SG      -0.064400
     12 C6           2.8970     2.4570     0.5330 c3         1 0SG      -0.079400
     13 C5           1.6760     3.1740     1.1520 c3         1 0SG      -0.044200
     14 C4           0.3620     2.9810     0.4140 c2         1 0SG      -0.197200
     15 C3           0.1770     2.4930    -0.8270 c2         1 0SG      -0.269200
     16 C2          -1.1750     2.2920    -1.4700 c3         1 0SG       0.199500
     17 O1          -1.1590     2.9010    -2.7620 oh         1 0SG      -0.673000
     18 C1          -1.5720     0.7910    -1.5590 c3         1 0SG       0.056700
     19 C           -0.8180     0.0010    -2.6690 c3         1 0SG       0.150600
     20 O           -1.0390    -1.4180    -2.4970 os         1 0SG      -0.451000
     21 C43         -0.2530    -2.0720    -1.4820 c6         1 0SG       0.351300
     22 O6           1.1110    -2.1250    -1.9350 os         1 0SG      -0.458000
     23 C44         -0.7620    -3.5250    -1.1960 c6         1 0SG       0.152300
     24 O3          -2.1740    -3.5810    -0.8440 oh         1 0SG      -0.714000
     25 C45          0.1520    -4.1670    -0.0870 c6         1 0SG       0.238300
     26 O4          -0.2130    -5.5530     0.1260 os         1 0SG      -0.570700
     27 S           -0.3080    -6.0910     1.6750 s6         1 0SG       1.502300
     28 O9          -0.5780    -7.5300     1.5310 o          1 0SG      -0.716533
     29 O8           1.0090    -5.7730     2.2420 o          1 0SG      -0.716533
     30 O10         -1.4140    -5.3210     2.2600 o          1 0SG      -0.716533
     31 C46          1.6470    -4.1030    -0.5500 c6         1 0SG       0.111300
     32 O5           1.8610    -5.0420    -1.6300 oh         1 0SG      -0.696000
     33 C47          2.0310    -2.6360    -0.9400 c6         1 0SG       0.143300
     34 C48          3.4810    -2.5490    -1.5160 c3         1 0SG       0.219600
     35 O11          3.8790    -1.1730    -1.6690 os         1 0SG      -0.597700
     36 S1           5.3820    -0.9310    -2.2840 s6         1 0SG       1.507300
     37 O13          6.2770    -1.4540    -1.2430 o          1 0SG      -0.720200
     38 O14          5.3970    -1.7070    -3.5340 o          1 0SG      -0.720200
     39 O12          5.4560     0.5230    -2.4760 o          1 0SG      -0.720200
     40 N           -3.0330     0.6470    -1.6980 ns         1 0SG      -0.486900
     41 C18         -3.7850    -0.3360    -1.1010 c          1 0SG       0.613100
     42 O2          -3.2860    -1.2050    -0.3990 o          1 0SG      -0.611100
     43 C19         -5.2840    -0.2840    -1.4060 c3         1 0SG      -0.158400
     44 C20         -6.0890     0.2260    -0.1880 c3         1 0SG      -0.065400
     45 C21         -7.6080     0.3050    -0.4580 c3         1 0SG      -0.075400
     46 C22         -8.4100     0.8250     0.7550 c3         1 0SG      -0.074400
     47 C23         -9.9290     0.9050     0.4870 c3         1 0SG      -0.073400
     48 C24        -10.7280     1.4290     1.7000 c3         1 0SG      -0.074400
     49 C25        -12.2470     1.5060     1.4370 c3         1 0SG      -0.074400
     50 C26        -13.0450     2.0300     2.6510 c3         1 0SG      -0.075400
     51 C27        -14.5650     2.1010     2.3900 c3         1 0SG      -0.075400
     52 C28        -15.3630     2.6270     3.6040 c3         1 0SG      -0.075400
     53 C29        -16.8800     2.6930     3.3450 c3         1 0SG      -0.087100
     54 H1          17.0660     1.5890     2.0970 hc         1 0SG       0.026033
     55 H2          16.8200     0.0990     3.0390 hc         1 0SG       0.026033
     56 H3          17.7140     0.0440     1.5050 hc         1 0SG       0.026033
     57 H4          15.6510     0.6420     0.2430 hc         1 0SG       0.037700
     58 H5          15.4080    -0.8360     1.1750 hc         1 0SG       0.037700
     59 H6          14.2300     0.4820     2.9630 hc         1 0SG       0.032700
     60 H7          14.4790     1.9620     2.0360 hc         1 0SG       0.032700
     61 H8          13.1050     1.0150     0.1560 hc         1 0SG       0.039700
     62 H9          12.8500    -0.4620     1.0870 hc         1 0SG       0.039700
     63 H10         11.6730     0.8580     2.8680 hc         1 0SG       0.029700
     64 H11         11.9400     2.3410     1.9490 hc         1 0SG       0.029700
     65 H12         10.5760     1.4080     0.0540 hc         1 0SG       0.045200
     66 H13         10.2950    -0.0650     0.9830 hc         1 0SG       0.045200
     67 H14          9.1110     1.2660     2.7490 hc         1 0SG       0.023700
     68 H15          9.4120     2.7480     1.8390 hc         1 0SG       0.023700
     69 H16          8.0610     1.8370    -0.0800 hc         1 0SG       0.063700
     70 H17          7.7420     0.3710     0.8440 hc         1 0SG       0.063700
     71 H18          6.5510     1.7180     2.5900 hc         1 0SG       0.018200
     72 H19          6.8980     3.1980     1.6940 hc         1 0SG       0.018200
     73 H20          5.5680     2.3230    -0.2540 hc         1 0SG       0.067200
     74 H21          5.2030     0.8580     0.6560 hc         1 0SG       0.067200
     75 H22          4.0060     2.2220     2.3840 hc         1 0SG       0.023200
     76 H23          4.3930     3.6960     1.4970 hc         1 0SG       0.023200
     77 H24          3.0790     2.8540    -0.4730 hc         1 0SG       0.052700
     78 H25          2.6740     1.3880     0.4260 hc         1 0SG       0.052700
     79 H26          1.5560     2.8130     2.1810 hc         1 0SG       0.038700
     80 H27          1.8940     4.2470     1.2300 hc         1 0SG       0.038700
     81 H28         -0.5050     3.2700     1.0130 ha         1 0SG       0.164000
     82 H30          1.0190     2.1870    -1.4490 ha         1 0SG       0.184000
     83 H32         -1.9250     2.7910    -0.8370 h1         1 0SG       0.077700
     84 H33         -0.8410     3.8210    -2.6300 ho         1 0SG       0.451000
     85 H34         -1.2920     0.3610    -0.5890 h1         1 0SG       0.090700
     86 H35         -1.1930     0.3220    -3.6500 h1         1 0SG       0.049200
     87 H36          0.2540     0.2350    -2.6350 h1         1 0SG       0.049200
     88 H37         -0.3050    -1.4900    -0.5500 h2         1 0SG       0.018700
     89 H38         -0.6110    -4.0990    -2.1220 h1         1 0SG       0.067700
     90 H39         -2.4950    -2.6400    -0.7180 ho         1 0SG       0.522000
     91 H40          0.0310    -3.5880     0.8410 h1         1 0SG       0.052700
     92 H41          2.2740    -4.3880     0.3090 h1         1 0SG       0.072700
     93 H42          1.2760    -5.8090    -1.4170 ho         1 0SG       0.491000
     94 H43          1.9780    -1.9990    -0.0450 h1         1 0SG       0.047700
     95 H44          4.1570    -3.0710    -0.8250 h1         1 0SG       0.042700
     96 H45          3.5030    -3.0790    -2.4780 h1         1 0SG       0.042700
     97 H46         -3.5270     1.3130    -2.2810 hn         1 0SG       0.311500
     98 H47         -5.4710     0.3880    -2.2520 hc         1 0SG       0.054700
     99 H48         -5.6280    -1.2960    -1.6510 hc         1 0SG       0.054700
    100 H49         -5.9090    -0.4360     0.6680 hc         1 0SG       0.057700
    101 H50         -5.7210     1.2210     0.0950 hc         1 0SG       0.057700
    102 H51         -7.7880     0.9640    -1.3170 hc         1 0SG       0.033200
    103 H52         -7.9770    -0.6900    -0.7350 hc         1 0SG       0.033200
    104 H53         -8.2300     0.1660     1.6140 hc         1 0SG       0.041700
    105 H54         -8.0400     1.8200     1.0320 hc         1 0SG       0.041700
    106 H55        -10.1090     1.5620    -0.3740 hc         1 0SG       0.034700
    107 H56        -10.3000    -0.0910     0.2130 hc         1 0SG       0.034700
    108 H57        -10.5450     0.7740     2.5620 hc         1 0SG       0.038700
    109 H58        -10.3580     2.4260     1.9710 hc         1 0SG       0.038700
    110 H59        -12.4310     2.1600     0.5750 hc         1 0SG       0.035200
    111 H60        -12.6170     0.5090     1.1660 hc         1 0SG       0.035200
    112 H61        -12.8570     1.3780     3.5130 hc         1 0SG       0.036700
    113 H62        -12.6780     3.0290     2.9180 hc         1 0SG       0.036700
    114 H63        -14.7530     2.7520     1.5270 hc         1 0SG       0.035700
    115 H64        -14.9320     1.1020     2.1240 hc         1 0SG       0.035700
    116 H65        -15.1760     1.9790     4.4690 hc         1 0SG       0.036700
    117 H66        -15.0020     3.6280     3.8690 hc         1 0SG       0.036700
    118 H67        -17.1020     3.3610     2.5050 hc         1 0SG       0.028367
    119 H68        -17.2780     1.6980     3.1120 hc         1 0SG       0.028367
    120 H69        -17.4030     3.0720     4.2320 hc         1 0SG       0.028367
@<TRIPOS>BOND
     1     1     2 1   
     2     1    54 1   
     3     1    55 1   
     4     1    56 1   
     5     2     3 1   
     6     2    57 1   
     7     2    58 1   
     8     3     4 1   
     9     3    59 1   
    10     3    60 1   
    11     4     5 1   
    12     4    61 1   
    13     4    62 1   
    14     5     6 1   
    15     5    63 1   
    16     5    64 1   
    17     6     7 1   
    18     6    65 1   
    19     6    66 1   
    20     7     8 1   
    21     7    67 1   
    22     7    68 1   
    23     8     9 1   
    24     8    69 1   
    25     8    70 1   
    26     9    10 1   
    27     9    71 1   
    28     9    72 1   
    29    10    11 1   
    30    10    73 1   
    31    10    74 1   
    32    11    12 1   
    33    11    75 1   
    34    11    76 1   
    35    12    13 1   
    36    12    77 1   
    37    12    78 1   
    38    13    14 1   
    39    13    79 1   
    40    13    80 1   
    41    14    15 2   
    42    14    81 1   
    43    15    16 1   
    44    15    82 1   
    45    16    17 1   
    46    16    18 1   
    47    16    83 1   
    48    17    84 1   
    49    18    19 1   
    50    18    40 1   
    51    18    85 1   
    52    19    20 1   
    53    19    86 1   
    54    19    87 1   
    55    20    21 1   
    56    21    22 1   
    57    21    23 1   
    58    21    88 1   
    59    22    33 1   
    60    23    24 1   
    61    23    25 1   
    62    23    89 1   
    63    24    90 1   
    64    25    26 1   
    65    25    31 1   
    66    25    91 1   
    67    26    27 1   
    68    27    28 1   
    69    27    29 1   
    70    27    30 1   
    71    31    32 1   
    72    31    33 1   
    73    31    92 1   
    74    32    93 1   
    75    33    34 1   
    76    33    94 1   
    77    34    35 1   
    78    34    95 1   
    79    34    96 1   
    80    35    36 1   
    81    36    37 1   
    82    36    38 1   
    83    36    39 1   
    84    40    41 1   
    85    40    97 1   
    86    41    42 2   
    87    41    43 1   
    88    43    44 1   
    89    43    98 1   
    90    43    99 1   
    91    44    45 1   
    92    44   100 1   
    93    44   101 1   
    94    45    46 1   
    95    45   102 1   
    96    45   103 1   
    97    46    47 1   
    98    46   104 1   
    99    46   105 1   
   100    47    48 1   
   101    47   106 1   
   102    47   107 1   
   103    48    49 1   
   104    48   108 1   
   105    48   109 1   
   106    49    50 1   
   107    49   110 1   
   108    49   111 1   
   109    50    51 1   
   110    50   112 1   
   111    50   113 1   
   112    51    52 1   
   113    51   114 1   
   114    51   115 1   
   115    52    53 1   
   116    52   116 1   
   117    52   117 1   
   118    53   118 1   
   119    53   119 1   
   120    53   120 1   
@<TRIPOS>SUBSTRUCTURE
     1 0SG         1 TEMP              0 ****  ****    0 ROOT
