@<TRIPOS>MOLECULE
0SH
  129   129     1     0     0
SMALL
bcc


@<TRIPOS>ATOM
      1 C18        -18.4880    -7.4230    -0.3580 c3         1 0SH      -0.088100
      2 C17        -17.7490    -6.1210    -0.6330 c3         1 0SH      -0.074400
      3 C16        -16.2650    -6.2000    -0.2960 c3         1 0SH      -0.075400
      4 C15        -15.5150    -4.9010    -0.5620 c3         1 0SH      -0.074400
      5 C14        -14.0340    -4.9780    -0.2150 c3         1 0SH      -0.074400
      6 C13        -13.2840    -3.6770    -0.4710 c3         1 0SH      -0.074400
      7 C12        -11.8080    -3.7520    -0.1030 c3         1 0SH      -0.074400
      8 C11        -11.0550    -2.4510    -0.3470 c3         1 0SH      -0.073400
      9 C10         -9.5880    -2.5250     0.0560 c3         1 0SH      -0.074400
     10 C9          -8.8260    -1.2250    -0.1710 c3         1 0SH      -0.073400
     11 C8          -7.3750    -1.2990     0.2860 c3         1 0SH      -0.074400
     12 C7          -6.6000    -0.0040     0.0760 c3         1 0SH      -0.075400
     13 C6          -5.1750    -0.0790     0.6090 c3         1 0SH      -0.072400
     14 C5          -4.3910     1.2120     0.4020 c3         1 0SH      -0.106400
     15 C4          -3.0200     1.1900     1.0760 c3         1 0SH       0.113100
     16 O4          -2.2610     0.0760     0.6640 oh         1 0SH      -0.576800
     17 C3          -2.2650     2.5220     0.8920 c3         1 0SH       0.104100
     18 O3          -3.0450     3.5860     1.3860 oh         1 0SH      -0.578800
     19 C2          -0.8670     2.5140     1.5500 c3         1 0SH       0.087700
     20 C1          -0.2760     3.9050     1.7360 c3         1 0SH       0.124400
     21 O1A         -0.1210     4.4890     0.4590 os         1 0SH      -0.432600
     22 C1A          0.7220     5.5920     0.4010 c6         1 0SH       0.313900
     23 O6A          2.0590     5.2700     0.6670 os         1 0SH      -0.404600
     24 C5M          2.6470     4.3540    -0.2420 c6         1 0SH       0.150100
     25 C6A          4.0610     4.0800     0.2240 c3         1 0SH       0.147400
     26 O5A          4.0050     3.4490     1.4810 oh         1 0SH      -0.591800
     27 C4A          2.5990     4.8730    -1.6740 c6         1 0SH       0.122100
     28 O4A          3.4550     5.9840    -1.7920 oh         1 0SH      -0.592800
     29 C3A          1.1590     5.2350    -2.0300 c6         1 0SH       0.117100
     30 O3A          1.1630     5.7900    -3.3240 oh         1 0SH      -0.610800
     31 C2A          0.6030     6.2060    -0.9960 c6         1 0SH       0.092100
     32 O2A         -0.7250     6.5050    -1.3450 oh         1 0SH      -0.587800
     33 N2           0.0620     1.7140     0.7840 ns         1 0SH      -0.566900
     34 CAA          0.7810     0.6940     1.2790 c          1 0SH       0.679100
     35 OAA          0.7110     0.3270     2.4450 o          1 0SH      -0.602100
     36 CAB          1.7150     0.0250     0.2930 c3         1 0SH      -0.153400
     37 CAC          3.1220    -0.1170     0.8640 c3         1 0SH      -0.074400
     38 CAD          4.0850    -0.8130    -0.0890 c3         1 0SH      -0.074400
     39 CAE          5.4720    -0.9770     0.5200 c3         1 0SH      -0.074400
     40 CAF          6.4590    -1.7160    -0.3740 c3         1 0SH      -0.073400
     41 CAG          7.8160    -1.9120     0.2910 c3         1 0SH      -0.075400
     42 CAH          8.8120    -2.6960    -0.5530 c3         1 0SH      -0.073400
     43 CAI         10.1410    -2.9180     0.1600 c3         1 0SH      -0.075400
     44 CAJ         11.1450    -3.7280    -0.6490 c3         1 0SH      -0.073400
     45 CAK         12.4520    -3.9660     0.0970 c3         1 0SH      -0.075400
     46 CAL         13.4630    -4.7890    -0.6910 c3         1 0SH      -0.073400
     47 CAM         14.7570    -5.0380     0.0740 c3         1 0SH      -0.074400
     48 CAN         15.7710    -5.8660    -0.7050 c3         1 0SH      -0.075400
     49 CAO         17.0610    -6.1210     0.0650 c3         1 0SH      -0.075400
     50 CAP         18.0660    -6.9490    -0.7240 c3         1 0SH      -0.088100
     51 H1         -18.4240    -7.6990     0.6960 hc         1 0SH       0.031367
     52 H2         -19.5460    -7.3470    -0.6160 hc         1 0SH       0.031367
     53 H3         -18.0650    -8.2460    -0.9380 hc         1 0SH       0.031367
     54 H4         -17.8660    -5.8480    -1.6860 hc         1 0SH       0.036700
     55 H5         -18.2070    -5.3100    -0.0580 hc         1 0SH       0.036700
     56 H6         -16.1490    -6.4760     0.7580 hc         1 0SH       0.036700
     57 H7         -15.8050    -7.0110    -0.8710 hc         1 0SH       0.036700
     58 H8         -15.6270    -4.6260    -1.6170 hc         1 0SH       0.036700
     59 H9         -15.9800    -4.0900     0.0100 hc         1 0SH       0.036700
     60 H10        -13.9250    -5.2560     0.8400 hc         1 0SH       0.037200
     61 H11        -13.5680    -5.7870    -0.7890 hc         1 0SH       0.037200
     62 H12        -13.3820    -3.4030    -1.5280 hc         1 0SH       0.036700
     63 H13        -13.7580    -2.8670     0.0950 hc         1 0SH       0.036700
     64 H14        -11.7140    -4.0310     0.9530 hc         1 0SH       0.037200
     65 H15        -11.3320    -4.5600    -0.6700 hc         1 0SH       0.037200
     66 H16        -11.1300    -2.1800    -1.4060 hc         1 0SH       0.036700
     67 H17        -11.5420    -1.6410     0.2070 hc         1 0SH       0.036700
     68 H18         -9.5190    -2.8010     1.1150 hc         1 0SH       0.037700
     69 H19         -9.0980    -3.3340    -0.4970 hc         1 0SH       0.037700
     70 H20         -8.8640    -0.9610    -1.2340 hc         1 0SH       0.036700
     71 H21         -9.3320    -0.4110     0.3600 hc         1 0SH       0.036700
     72 H22         -7.3470    -1.5650     1.3480 hc         1 0SH       0.038200
     73 H23         -6.8680    -2.1140    -0.2410 hc         1 0SH       0.038200
     74 H24         -6.5830     0.2440    -0.9910 hc         1 0SH       0.036700
     75 H25         -7.1290     0.8200     0.5700 hc         1 0SH       0.036700
     76 H26         -5.2070    -0.3120     1.6800 hc         1 0SH       0.044700
     77 H28         -4.2660     1.4060    -0.6710 hc         1 0SH       0.048700
     78 H30         -3.1690     1.0460     2.1550 h1         1 0SH       0.069700
     79 H31         -2.1100     0.1430    -0.2850 ho         1 0SH       0.395000
     80 H32         -2.1460     2.7180    -0.1810 h1         1 0SH       0.079700
     81 H33         -3.2670     3.4040     2.3060 ho         1 0SH       0.399000
     82 H34         -0.9490     2.0650     2.5440 h1         1 0SH       0.091700
     83 H35         -0.9120     4.5280     2.3740 h1         1 0SH       0.050200
     84 H36          0.6900     3.7930     2.2400 h1         1 0SH       0.050200
     85 H37          0.4520     6.3320     1.1680 h2         1 0SH       0.070700
     86 H38          2.1040     3.4000    -0.2280 h1         1 0SH       0.053700
     87 H39          4.5450     3.4440    -0.5290 h1         1 0SH       0.036700
     88 H40          4.6290     5.0160     0.2690 h1         1 0SH       0.036700
     89 H41          4.9060     3.2680     1.7630 ho         1 0SH       0.406000
     90 H42          2.9260     4.0540    -2.3340 h1         1 0SH       0.048700
     91 H43          3.3160     6.3690    -2.6640 ho         1 0SH       0.423000
     92 H44          0.5600     4.3120    -2.0070 h1         1 0SH       0.060700
     93 H45          0.3060     6.2010    -3.4780 ho         1 0SH       0.430000
     94 H46          1.2240     7.1110    -1.0000 h1         1 0SH       0.064700
     95 H47         -0.9740     7.3390    -0.9360 ho         1 0SH       0.413000
     96 H48          0.1880     1.9600    -0.1840 hn         1 0SH       0.310500
     97 H49          1.3050    -0.9640     0.0630 hc         1 0SH       0.052200
     98 H50          1.7480     0.5720    -0.6530 hc         1 0SH       0.052200
     99 H51          3.5100     0.8740     1.1160 hc         1 0SH       0.059200
    100 H52          3.0730    -0.6800     1.7990 hc         1 0SH       0.059200
    101 H53          3.6860    -1.7960    -0.3600 hc         1 0SH       0.035200
    102 H54          4.1580    -0.2460    -1.0230 hc         1 0SH       0.035200
    103 H55          5.8780     0.0090     0.7720 hc         1 0SH       0.038200
    104 H56          5.3810    -1.5140     1.4710 hc         1 0SH       0.038200
    105 H57          6.0420    -2.6940    -0.6420 hc         1 0SH       0.037200
    106 H58          6.5850    -1.1720    -1.3160 hc         1 0SH       0.037200
    107 H59          8.2430    -0.9350     0.5420 hc         1 0SH       0.037200
    108 H60          7.6720    -2.4290     1.2460 hc         1 0SH       0.037200
    109 H61          8.3770    -3.6660    -0.8200 hc         1 0SH       0.037200
    110 H62          8.9870    -2.1730    -1.5000 hc         1 0SH       0.037200
    111 H63         10.5810    -1.9480     0.4180 hc         1 0SH       0.037200
    112 H64          9.9540    -3.4250     1.1130 hc         1 0SH       0.037200
    113 H65         10.7010    -4.6920    -0.9200 hc         1 0SH       0.037200
    114 H66         11.3540    -3.2150    -1.5950 hc         1 0SH       0.037200
    115 H67         12.8990    -3.0020     0.3660 hc         1 0SH       0.036700
    116 H68         12.2370    -4.4720     1.0460 hc         1 0SH       0.036700
    117 H69         13.0140    -5.7490    -0.9670 hc         1 0SH       0.037200
    118 H70         13.6910    -4.2800    -1.6340 hc         1 0SH       0.037200
    119 H71         15.2070    -4.0780     0.3500 hc         1 0SH       0.036700
    120 H72         14.5260    -5.5440     1.0190 hc         1 0SH       0.036700
    121 H73         15.3200    -6.8250    -0.9840 hc         1 0SH       0.036700
    122 H74         16.0070    -5.3590    -1.6470 hc         1 0SH       0.036700
    123 H75         17.5120    -5.1630     0.3430 hc         1 0SH       0.036700
    124 H76         16.8250    -6.6280     1.0060 hc         1 0SH       0.036700
    125 H77         18.9830    -7.1170    -0.1590 hc         1 0SH       0.031367
    126 H78         17.6530    -7.9260    -0.9830 hc         1 0SH       0.031367
    127 H79         18.3380    -6.4520    -1.6570 hc         1 0SH       0.031367
    128 H27         -4.6550    -0.9150     0.1330 hc         1 0SH       0.044700
    129 H29         -4.9710     2.0490     0.7970 hc         1 0SH       0.048700
@<TRIPOS>BOND
     1     1     2 1   
     2     1    51 1   
     3     1    52 1   
     4     1    53 1   
     5     2     3 1   
     6     2    54 1   
     7     2    55 1   
     8     3     4 1   
     9     3    56 1   
    10     3    57 1   
    11     4     5 1   
    12     4    58 1   
    13     4    59 1   
    14     5     6 1   
    15     5    60 1   
    16     5    61 1   
    17     6     7 1   
    18     6    62 1   
    19     6    63 1   
    20     7     8 1   
    21     7    64 1   
    22     7    65 1   
    23     8     9 1   
    24     8    66 1   
    25     8    67 1   
    26     9    10 1   
    27     9    68 1   
    28     9    69 1   
    29    10    11 1   
    30    10    70 1   
    31    10    71 1   
    32    11    12 1   
    33    11    72 1   
    34    11    73 1   
    35    12    13 1   
    36    12    74 1   
    37    12    75 1   
    38    13    14 1   
    39    13    76 1   
    40    13   128 1   
    41    14    15 1   
    42    14    77 1   
    43    14   129 1   
    44    15    16 1   
    45    15    17 1   
    46    15    78 1   
    47    16    79 1   
    48    17    18 1   
    49    17    19 1   
    50    17    80 1   
    51    18    81 1   
    52    19    20 1   
    53    19    33 1   
    54    19    82 1   
    55    20    21 1   
    56    20    83 1   
    57    20    84 1   
    58    21    22 1   
    59    22    23 1   
    60    22    31 1   
    61    22    85 1   
    62    23    24 1   
    63    24    25 1   
    64    24    27 1   
    65    24    86 1   
    66    25    26 1   
    67    25    87 1   
    68    25    88 1   
    69    26    89 1   
    70    27    28 1   
    71    27    29 1   
    72    27    90 1   
    73    28    91 1   
    74    29    30 1   
    75    29    31 1   
    76    29    92 1   
    77    30    93 1   
    78    31    32 1   
    79    31    94 1   
    80    32    95 1   
    81    33    34 1   
    82    33    96 1   
    83    34    35 2   
    84    34    36 1   
    85    36    37 1   
    86    36    97 1   
    87    36    98 1   
    88    37    38 1   
    89    37    99 1   
    90    37   100 1   
    91    38    39 1   
    92    38   101 1   
    93    38   102 1   
    94    39    40 1   
    95    39   103 1   
    96    39   104 1   
    97    40    41 1   
    98    40   105 1   
    99    40   106 1   
   100    41    42 1   
   101    41   107 1   
   102    41   108 1   
   103    42    43 1   
   104    42   109 1   
   105    42   110 1   
   106    43    44 1   
   107    43   111 1   
   108    43   112 1   
   109    44    45 1   
   110    44   113 1   
   111    44   114 1   
   112    45    46 1   
   113    45   115 1   
   114    45   116 1   
   115    46    47 1   
   116    46   117 1   
   117    46   118 1   
   118    47    48 1   
   119    47   119 1   
   120    47   120 1   
   121    48    49 1   
   122    48   121 1   
   123    48   122 1   
   124    49    50 1   
   125    49   123 1   
   126    49   124 1   
   127    50   125 1   
   128    50   126 1   
   129    50   127 1   
@<TRIPOS>SUBSTRUCTURE
     1 0SH         1 TEMP              0 ****  ****    0 ROOT
