@<TRIPOS>MOLECULE
0SH
  129   129     1     0     0
SMALL
No Charge or Current Charge


@<TRIPOS>ATOM
      1 C18        -18.9060    -7.1410    -1.2440 c3         1 0SH      -0.088100
      2 C17        -18.0350    -5.9170    -1.5840 c3         1 0SH      -0.074400
      3 C16        -16.6420    -5.9620    -0.9190 c3         1 0SH      -0.075400
      4 C15        -15.7690    -4.7350    -1.2620 c3         1 0SH      -0.074400
      5 C14        -14.3750    -4.7820    -0.5980 c3         1 0SH      -0.074400
      6 C13        -13.5000    -3.5570    -0.9410 c3         1 0SH      -0.074400
      7 C12        -12.1080    -3.6030    -0.2720 c3         1 0SH      -0.074400
      8 C11        -11.2340    -2.3760    -0.6110 c3         1 0SH      -0.073400
      9 C10         -9.8430    -2.4240     0.0580 c3         1 0SH      -0.074400
     10 C9          -8.9730    -1.1890    -0.2670 c3         1 0SH      -0.073400
     11 C8          -7.5820    -1.2400     0.4010 c3         1 0SH      -0.074400
     12 C7          -6.7180     0.0030     0.0960 c3         1 0SH      -0.075400
     13 C6          -5.3280    -0.0490     0.7690 c3         1 0SH      -0.072400
     14 C5          -4.4730     1.2110     0.4840 c3         1 0SH      -0.106400
     15 C4          -3.1130     1.2520     1.2390 c3         1 0SH       0.136300
     16 O4          -2.3380     0.1190     0.8080 oh         1 0SH      -0.639000
     17 C3          -2.3040     2.5860     1.0130 c3         1 0SH       0.127300
     18 O3          -3.1550     3.7290     1.2530 oh         1 0SH      -0.641000
     19 C2          -1.0130     2.7470     1.8900 c3         1 0SH       0.087700
     20 C1          -0.1760     3.9920     1.4700 c3         1 0SH       0.147600
     21 O1A          0.4520     3.7150     0.2010 os         1 0SH      -0.479000
     22 C1A          1.2720     4.7580    -0.3640 c6         1 0SH       0.360300
     23 O6A          2.3750     5.0660     0.5200 os         1 0SH      -0.451000
     24 C5M          3.3050     3.9690     0.7380 c6         1 0SH       0.173300
     25 C6A          4.3750     4.4090     1.7940 c3         1 0SH       0.170600
     26 O5A          3.8080     4.8280     3.0530 oh         1 0SH      -0.714000
     27 C4A          3.9550     3.5080    -0.6090 c6         1 0SH       0.145300
     28 O4A          4.7980     4.5180    -1.2000 oh         1 0SH      -0.715000
     29 C3A          2.8240     3.1430    -1.6160 c6         1 0SH       0.140300
     30 O3A          3.3840     2.8120    -2.9030 oh         1 0SH      -0.673000
     31 C2A          1.7990     4.3140    -1.7700 c6         1 0SH       0.115300
     32 O2A          0.7180     3.9030    -2.6430 oh         1 0SH      -0.710000
     33 N2          -0.1770     1.5350     1.9020 ns         1 0SH      -0.499900
     34 CAA          0.8650     1.2930     2.7640 c          1 0SH       0.612100
     35 OAA          1.1380     2.0420     3.6900 o          1 0SH      -0.602100
     36 CAB          1.6390    -0.0020     2.4940 c3         1 0SH      -0.153400
     37 CAC          2.9970     0.3000     1.8180 c3         1 0SH      -0.074400
     38 CAD          3.8830    -0.9490     1.6320 c3         1 0SH      -0.074400
     39 CAE          5.2420    -0.6240     0.9730 c3         1 0SH      -0.074400
     40 CAF          6.1650    -1.8550     0.8480 c3         1 0SH      -0.073400
     41 CAG          7.5370    -1.5200     0.2200 c3         1 0SH      -0.075400
     42 CAH          8.4860    -2.7360     0.1580 c3         1 0SH      -0.073400
     43 CAI          9.8690    -2.3950    -0.4390 c3         1 0SH      -0.075400
     44 CAJ         10.8350    -3.6000    -0.4510 c3         1 0SH      -0.073400
     45 CAK         12.2270    -3.2550    -1.0240 c3         1 0SH      -0.075400
     46 CAL         13.2040    -4.4520    -0.9970 c3         1 0SH      -0.073400
     47 CAM         14.6020    -4.1050    -1.5530 c3         1 0SH      -0.074400
     48 CAN         15.5830    -5.2970    -1.5070 c3         1 0SH      -0.075400
     49 CAO         16.9840    -4.9510    -2.0560 c3         1 0SH      -0.075400
     50 CAP         17.9630    -6.1400    -2.0020 c3         1 0SH      -0.088100
     51 H1         -19.0740    -7.2090    -0.1620 hc         1 0SH       0.031367
     52 H2         -19.8810    -7.0650    -1.7390 hc         1 0SH       0.031367
     53 H3         -18.4220    -8.0670    -1.5780 hc         1 0SH       0.031367
     54 H4         -17.9150    -5.8560    -2.6740 hc         1 0SH       0.036700
     55 H5         -18.5600    -5.0060    -1.2680 hc         1 0SH       0.036700
     56 H6         -16.7650    -6.0240     0.1700 hc         1 0SH       0.036700
     57 H7         -16.1220    -6.8750    -1.2350 hc         1 0SH       0.036700
     58 H8         -15.6470    -4.6720    -2.3500 hc         1 0SH       0.036700
     59 H9         -16.2880    -3.8230    -0.9440 hc         1 0SH       0.036700
     60 H10        -14.4970    -4.8450     0.4910 hc         1 0SH       0.037200
     61 H11        -13.8560    -5.6950    -0.9150 hc         1 0SH       0.037200
     62 H12        -13.3760    -3.4960    -2.0290 hc         1 0SH       0.036700
     63 H13        -14.0210    -2.6430    -0.6260 hc         1 0SH       0.036700
     64 H14        -12.2340    -3.6670     0.8160 hc         1 0SH       0.037200
     65 H15        -11.5870    -4.5160    -0.5890 hc         1 0SH       0.037200
     66 H16        -11.1080    -2.3120    -1.6990 hc         1 0SH       0.036700
     67 H17        -11.7560    -1.4640    -0.2940 hc         1 0SH       0.036700
     68 H18         -9.9680    -2.4980     1.1460 hc         1 0SH       0.037700
     69 H19         -9.3170    -3.3310    -0.2670 hc         1 0SH       0.037700
     70 H20         -8.8480    -1.1120    -1.3550 hc         1 0SH       0.036700
     71 H21         -9.4980    -0.2830     0.0600 hc         1 0SH       0.036700
     72 H22         -7.7080    -1.3310     1.4880 hc         1 0SH       0.038200
     73 H23         -7.0530    -2.1400     0.0640 hc         1 0SH       0.038200
     74 H24         -6.5900     0.0960    -0.9900 hc         1 0SH       0.036700
     75 H25         -7.2490     0.9010     0.4350 hc         1 0SH       0.036700
     76 H26         -5.4600    -0.1570     1.8530 hc         1 0SH       0.044700
     77 H28         -4.2910     1.2900    -0.5950 hc         1 0SH       0.048700
     78 H30         -3.3210     1.1680     2.3150 h1         1 0SH       0.069700
     79 H31         -2.8950    -0.6780     0.9420 ho         1 0SH       0.434000
     80 H32         -1.9880     2.5880    -0.0390 h1         1 0SH       0.079700
     81 H33         -3.5720     3.6150     2.1340 ho         1 0SH       0.438000
     82 H34         -1.3430     2.9140     2.9240 h1         1 0SH       0.091700
     83 H35         -0.8200     4.8790     1.4040 h1         1 0SH       0.050200
     84 H36          0.5820     4.1910     2.2380 h1         1 0SH       0.050200
     85 H37          0.6570     5.6630    -0.4930 h2         1 0SH       0.070700
     86 H38          2.7510     3.1240     1.1700 h1         1 0SH       0.053700
     87 H39          5.0590     3.5640     1.9540 h1         1 0SH       0.036700
     88 H40          4.9680     5.2280     1.3630 h1         1 0SH       0.036700
     89 H41          4.5510     5.1620     3.6090 ho         1 0SH       0.505000
     90 H42          4.5460     2.5990    -0.4130 h1         1 0SH       0.048700
     91 H43          4.8460     4.2630    -2.1540 ho         1 0SH       0.522000
     92 H44          2.2870     2.2710    -1.2120 h1         1 0SH       0.060700
     93 H45          2.6230     2.8470    -3.5300 ho         1 0SH       0.469000
     94 H46          2.3210     5.1770    -2.2120 h1         1 0SH       0.064700
     95 H47          0.0550     3.4620    -2.0590 ho         1 0SH       0.512000
     96 H48         -0.3880     0.8160     1.2190 hn         1 0SH       0.310500
     97 H49          1.8270    -0.5050     3.4500 hc         1 0SH       0.052200
     98 H50          1.0620    -0.6570     1.8300 hc         1 0SH       0.052200
     99 H51          2.8150     0.7600     0.8390 hc         1 0SH       0.059200
    100 H52          3.5440     1.0360     2.4220 hc         1 0SH       0.059200
    101 H53          4.0600    -1.4130     2.6110 hc         1 0SH       0.035200
    102 H54          3.3500    -1.6860     1.0190 hc         1 0SH       0.035200
    103 H55          5.0670    -0.1990    -0.0240 hc         1 0SH       0.038200
    104 H56          5.7520     0.1470     1.5640 hc         1 0SH       0.038200
    105 H57          6.3230    -2.2860     1.8440 hc         1 0SH       0.037200
    106 H58          5.6670    -2.6220     0.2410 hc         1 0SH       0.037200
    107 H59          7.3840    -1.1260    -0.7930 hc         1 0SH       0.037200
    108 H60          8.0140    -0.7230     0.8050 hc         1 0SH       0.037200
    109 H61          8.6220    -3.1360     1.1710 hc         1 0SH       0.037200
    110 H62          8.0200    -3.5300    -0.4390 hc         1 0SH       0.037200
    111 H63          9.7390    -2.0250    -1.4640 hc         1 0SH       0.037200
    112 H64         10.3200    -1.5800     0.1410 hc         1 0SH       0.037200
    113 H65         10.9510    -3.9770     0.5730 hc         1 0SH       0.037200
    114 H66         10.3920    -4.4120    -1.0430 hc         1 0SH       0.037200
    115 H67         12.1160    -2.9020    -2.0570 hc         1 0SH       0.036700
    116 H68         12.6590    -2.4280    -0.4460 hc         1 0SH       0.036700
    117 H69         13.3060    -4.8090     0.0350 hc         1 0SH       0.037200
    118 H70         12.7780    -5.2780    -1.5810 hc         1 0SH       0.037200
    119 H71         14.5020    -3.7590    -2.5900 hc         1 0SH       0.036700
    120 H72         15.0220    -3.2710    -0.9770 hc         1 0SH       0.036700
    121 H73         15.6780    -5.6440    -0.4700 hc         1 0SH       0.036700
    122 H74         15.1650    -6.1310    -2.0850 hc         1 0SH       0.036700
    123 H75         16.8940    -4.6100    -3.0950 hc         1 0SH       0.036700
    124 H76         17.4050    -4.1170    -1.4800 hc         1 0SH       0.036700
    125 H77         18.9420    -5.8480    -2.4000 hc         1 0SH       0.031367
    126 H78         18.1000    -6.4830    -0.9690 hc         1 0SH       0.031367
    127 H79         17.5860    -6.9800    -2.5980 hc         1 0SH       0.031367
    128 H27         -4.8020    -0.9450     0.4170 hc         1 0SH       0.044700
    129 H29         -5.0690     2.0870     0.7640 hc         1 0SH       0.048700
@<TRIPOS>BOND
     1     1     2 1   
     2     1    51 1   
     3     1    52 1   
     4     1    53 1   
     5     2     3 1   
     6     2    54 1   
     7     2    55 1   
     8     3     4 1   
     9     3    56 1   
    10     3    57 1   
    11     4     5 1   
    12     4    58 1   
    13     4    59 1   
    14     5     6 1   
    15     5    60 1   
    16     5    61 1   
    17     6     7 1   
    18     6    62 1   
    19     6    63 1   
    20     7     8 1   
    21     7    64 1   
    22     7    65 1   
    23     8     9 1   
    24     8    66 1   
    25     8    67 1   
    26     9    10 1   
    27     9    68 1   
    28     9    69 1   
    29    10    11 1   
    30    10    70 1   
    31    10    71 1   
    32    11    12 1   
    33    11    72 1   
    34    11    73 1   
    35    12    13 1   
    36    12    74 1   
    37    12    75 1   
    38    13    14 1   
    39    13    76 1   
    40    13   128 1   
    41    14    15 1   
    42    14    77 1   
    43    14   129 1   
    44    15    16 1   
    45    15    17 1   
    46    15    78 1   
    47    16    79 1   
    48    17    18 1   
    49    17    19 1   
    50    17    80 1   
    51    18    81 1   
    52    19    20 1   
    53    19    33 1   
    54    19    82 1   
    55    20    21 1   
    56    20    83 1   
    57    20    84 1   
    58    21    22 1   
    59    22    23 1   
    60    22    31 1   
    61    22    85 1   
    62    23    24 1   
    63    24    25 1   
    64    24    27 1   
    65    24    86 1   
    66    25    26 1   
    67    25    87 1   
    68    25    88 1   
    69    26    89 1   
    70    27    28 1   
    71    27    29 1   
    72    27    90 1   
    73    28    91 1   
    74    29    30 1   
    75    29    31 1   
    76    29    92 1   
    77    30    93 1   
    78    31    32 1   
    79    31    94 1   
    80    32    95 1   
    81    33    34 1   
    82    33    96 1   
    83    34    35 2   
    84    34    36 1   
    85    36    37 1   
    86    36    97 1   
    87    36    98 1   
    88    37    38 1   
    89    37    99 1   
    90    37   100 1   
    91    38    39 1   
    92    38   101 1   
    93    38   102 1   
    94    39    40 1   
    95    39   103 1   
    96    39   104 1   
    97    40    41 1   
    98    40   105 1   
    99    40   106 1   
   100    41    42 1   
   101    41   107 1   
   102    41   108 1   
   103    42    43 1   
   104    42   109 1   
   105    42   110 1   
   106    43    44 1   
   107    43   111 1   
   108    43   112 1   
   109    44    45 1   
   110    44   113 1   
   111    44   114 1   
   112    45    46 1   
   113    45   115 1   
   114    45   116 1   
   115    46    47 1   
   116    46   117 1   
   117    46   118 1   
   118    47    48 1   
   119    47   119 1   
   120    47   120 1   
   121    48    49 1   
   122    48   121 1   
   123    48   122 1   
   124    49    50 1   
   125    49   123 1   
   126    49   124 1   
   127    50   125 1   
   128    50   126 1   
   129    50   127 1   
@<TRIPOS>SUBSTRUCTURE
     1 0SH         1 TEMP              0 ****  ****    0 ROOT
