@<TRIPOS>MOLECULE
0SI
   35    38     1     0     0
SMALL
No Charge or Current Charge


@<TRIPOS>ATOM
      1 C4          14.4390    16.7650    13.5830 cc         1 0SI      -0.070000
      2 C14          8.8580    15.6560     6.6400 ca         1 0SI      -0.114500
      3 C5          15.4080    16.1430    12.7480 cc         1 0SI      -0.152000
      4 C6          15.2360    15.4990    11.4390 ca         1 0SI       0.099000
      5 C11          9.5000    13.7800     8.6320 ca         1 0SI      -0.083000
      6 C7          13.9700    15.4300    10.8250 ca         1 0SI      -0.226000
      7 C8          13.8160    14.8090     9.5680 ca         1 0SI       0.183100
      8 C9          11.3900    15.2470     9.4950 c3         1 0SI       0.210900
      9 C10         10.2430    14.9730     8.5310 ca         1 0SI      -0.100300
     10 C12          8.4400    13.5280     7.7420 ca         1 0SI      -0.114500
     11 C13          8.1180    14.4660     6.7460 ca         1 0SI      -0.096000
     12 N1          17.7590    15.6320    12.6510 ns         1 0SI      -0.355100
     13 C3          14.9560    17.2690    14.7520 cd         1 0SI      -0.248000
     14 C1          17.7160    15.0090    11.4300 c          1 0SI       0.584600
     15 C2          16.6650    16.1770    13.2900 cd         1 0SI      -0.025400
     16 S1          16.7050    16.9850    14.8660 ss         1 0SI       0.184000
     17 O2          12.5980    14.7160     8.9270 os         1 0SI      -0.338100
     18 C15          9.9170    15.9090     7.5290 ca         1 0SI      -0.083000
     19 C16         14.9330    14.2580     8.9260 ca         1 0SI      -0.167000
     20 C17         16.2000    14.3200     9.5260 ca         1 0SI      -0.010000
     21 C18         16.3580    14.9400    10.7820 ca         1 0SI      -0.208600
     22 H1          13.3880    16.8350    13.3190 ha         1 0SI       0.136000
     23 H3           9.7440    13.0470     9.3980 ha         1 0SI       0.115000
     24 H4          13.1140    15.8590    11.3310 ha         1 0SI       0.120000
     25 H5          11.4810    16.3290     9.6560 h1         1 0SI       0.043700
     26 H6          11.1760    14.7730    10.4620 h1         1 0SI       0.043700
     27 H7           7.8700    12.6050     7.8240 ha         1 0SI       0.115000
     28 H8           7.2990    14.2700     6.0580 ha         1 0SI       0.114000
     29 H9          18.6770    15.6720    13.0760 hn         1 0SI       0.335500
     30 H10         14.4340    17.7840    15.5490 h4         1 0SI       0.155000
     31 H11         10.4860    16.8320     7.4390 ha         1 0SI       0.115000
     32 H12         14.8160    13.7800     7.9580 ha         1 0SI       0.134000
     33 H13         17.0560    13.8870     9.0120 ha         1 0SI       0.139000
     34 O1          18.7250    14.5460    10.9190 o          1 0SI      -0.551000
     35 H2           8.6100    16.3820     5.8690 ha         1 0SI       0.115000
@<TRIPOS>BOND
     1     1     3 1   
     2     1    13 2   
     3     1    22 1   
     4     2    11 ar  
     5     2    18 ar  
     6     2    35 1   
     7     3     4 1   
     8     3    15 2   
     9     4     6 ar  
    10     4    21 ar  
    11     5     9 ar  
    12     5    10 ar  
    13     5    23 1   
    14     6     7 ar  
    15     6    24 1   
    16     7    17 1   
    17     7    19 ar  
    18     8     9 1   
    19     8    17 1   
    20     8    25 1   
    21     8    26 1   
    22     9    18 ar  
    23    10    11 ar  
    24    10    27 1   
    25    11    28 1   
    26    12    14 1   
    27    12    15 1   
    28    12    29 1   
    29    13    16 1   
    30    13    30 1   
    31    14    21 1   
    32    14    34 2   
    33    15    16 1   
    34    18    31 1   
    35    19    20 ar  
    36    19    32 1   
    37    20    21 ar  
    38    20    33 1   
@<TRIPOS>SUBSTRUCTURE
     1 0SI         1 TEMP              0 ****  ****    0 ROOT
