@<TRIPOS>MOLECULE
0SI
   35    38     1     0     0
SMALL
bcc


@<TRIPOS>ATOM
      1 C4          14.4460    16.8520    13.5480 cc         1 0SI      -0.088000
      2 C14          8.7970    15.6870     6.7780 ca         1 0SI      -0.132500
      3 C5          15.3650    16.1580    12.7010 cc         1 0SI      -0.152000
      4 C6          15.1550    15.5110    11.4330 ca         1 0SI       0.099000
      5 C11          9.7190    13.7470     8.5340 ca         1 0SI      -0.101000
      6 C7          13.9010    15.4790    10.8120 ca         1 0SI      -0.244000
      7 C8          13.7470    14.8430     9.5910 ca         1 0SI       0.183100
      8 C9          11.4140    15.3220     9.4930 c3         1 0SI       0.187700
      9 C10         10.2850    15.0200     8.5560 ca         1 0SI      -0.100300
     10 C12          8.7010    13.4450     7.6410 ca         1 0SI      -0.132500
     11 C13          8.2390    14.4160     6.7600 ca         1 0SI      -0.114000
     12 N1          17.6890    15.5460    12.6260 ns         1 0SI      -0.422100
     13 C3          15.0260    17.3300    14.6720 cd         1 0SI      -0.121100
     14 C1          17.5910    14.8990    11.4180 c          1 0SI       0.727100
     15 C2          16.6280    16.1450    13.2380 cd         1 0SI       0.119500
     16 S1          16.7140    16.9580    14.7490 ss         1 0SI      -0.105800
     17 O2          12.5900    14.7560     8.9220 os         1 0SI      -0.314900
     18 C15          9.8180    15.9850     7.6710 ca         1 0SI      -0.101000
     19 C16         14.8510    14.2310     8.9710 ca         1 0SI      -0.185000
     20 C17         16.0790    14.2620     9.5780 ca         1 0SI      -0.028000
     21 C18         16.2580    14.8970    10.8140 ca         1 0SI      -0.208600
     22 H1          13.3970    16.9870    13.3270 ha         1 0SI       0.154000
     23 H3          10.0720    12.9900     9.2230 ha         1 0SI       0.133000
     24 H4          13.0630    15.9560    11.3000 ha         1 0SI       0.138000
     25 H5          11.5350    16.4020     9.6210 h1         1 0SI       0.043700
     26 H6          11.2280    14.8830    10.4780 h1         1 0SI       0.043700
     27 H7           8.2660    12.4540     7.6330 ha         1 0SI       0.133000
     28 H8           7.4440    14.1820     6.0640 ha         1 0SI       0.132000
     29 H9          18.6020    15.5640    13.0620 hn         1 0SI       0.335500
     30 H10         14.5690    17.8850    15.4770 h4         1 0SI       0.173000
     31 H11         10.2540    16.9770     7.6810 ha         1 0SI       0.133000
     32 H12         14.7190    13.7380     8.0170 ha         1 0SI       0.152000
     33 H13         16.9240    13.7880     9.0970 ha         1 0SI       0.157000
     34 O1          18.5740    14.3740    10.9150 o          1 0SI      -0.626500
     35 H2           8.4390    16.4470     6.0950 ha         1 0SI       0.133000
@<TRIPOS>BOND
     1     1     3 1   
     2     1    13 2   
     3     1    22 1   
     4     2    11 ar  
     5     2    18 ar  
     6     2    35 1   
     7     3     4 1   
     8     3    15 2   
     9     4     6 ar  
    10     4    21 ar  
    11     5     9 ar  
    12     5    10 ar  
    13     5    23 1   
    14     6     7 ar  
    15     6    24 1   
    16     7    17 1   
    17     7    19 ar  
    18     8     9 1   
    19     8    17 1   
    20     8    25 1   
    21     8    26 1   
    22     9    18 ar  
    23    10    11 ar  
    24    10    27 1   
    25    11    28 1   
    26    12    14 1   
    27    12    15 1   
    28    12    29 1   
    29    13    16 1   
    30    13    30 1   
    31    14    21 1   
    32    14    34 2   
    33    15    16 1   
    34    18    31 1   
    35    19    20 ar  
    36    19    32 1   
    37    20    21 ar  
    38    20    33 1   
@<TRIPOS>SUBSTRUCTURE
     1 0SI         1 TEMP              0 ****  ****    0 ROOT
