@<TRIPOS>MOLECULE
0SJ
   40    43     1     0     0
SMALL
No Charge or Current Charge


@<TRIPOS>ATOM
      1 OAB          1.5020     2.9950    -1.4210 o          1 0SJ      -0.578000
      2 CAU          2.1910     2.3120    -0.6750 c          1 0SJ       0.548200
      3 CAL          2.9910     2.9140     0.3970 cc         1 0SJ      -0.324200
      4 CAF          3.7940     2.1950     1.2510 cd         1 0SJ      -0.072000
      5 CAG          3.8390     0.7730     1.0830 cd         1 0SJ      -0.293000
      6 CAT          3.0900     0.1650     0.0920 cc         1 0SJ       0.080400
      7 NAY          2.2780     0.9080    -0.7880 n          1 0SJ      -0.265000
      8 CAP          1.5410     0.2740    -1.9240 c6         1 0SJ       0.088000
      9 CAV          1.5590    -1.2770    -1.9490 c6         1 0SJ      -0.102700
     10 CAN          0.4380    -1.8780    -1.0530 c6         1 0SJ       0.101000
     11 CAM          2.9400    -1.7850    -1.4990 c6         1 0SJ      -0.072400
     12 CAW          3.1370    -1.3510    -0.0330 c6         1 0SJ      -0.058500
     13 CAO          2.0310    -1.9830     0.8550 c6         1 0SJ       0.093000
     14 NAX          0.6590    -1.6120     0.4000 n          1 0SJ      -0.402800
     15 CAQ         -0.1310    -0.6870     1.1250 c          1 0SJ       0.618700
     16 OAA          0.3290    -0.0810     2.0860 o          1 0SJ      -0.578100
     17 CAR         -1.5950    -0.5370     0.7700 ca         1 0SJ      -0.147600
     18 CAH         -2.3680    -1.6350     0.3240 ca         1 0SJ      -0.068000
     19 CAJ         -3.7320    -1.4700     0.0250 ca         1 0SJ      -0.109000
     20 CAS         -4.3400    -0.2150     0.1820 ca         1 0SJ       0.132000
     21 Cl1         -6.0470    -0.0120    -0.1910 cl         1 0SJ      -0.198000
     22 CAK         -3.5900     0.8750     0.6490 ca         1 0SJ      -0.109000
     23 CAI         -2.2260     0.7140     0.9500 ca         1 0SJ      -0.068000
     24 H1           2.9130     3.9920     0.4720 ha         1 0SJ       0.208000
     25 H2           4.3720     2.6900     2.0300 ha         1 0SJ       0.187000
     26 H3           4.4560     0.1740     1.7480 ha         1 0SJ       0.195000
     27 H4           0.4990     0.6280    -1.9310 h1         1 0SJ       0.070700
     28 H5           2.0010     0.6350    -2.8540 h1         1 0SJ       0.070700
     29 H6           1.3730    -1.6050    -2.9820 hc         1 0SJ       0.070700
     30 H7          -0.5220    -1.4680    -1.3910 h1         1 0SJ       0.060200
     31 H8           0.3950    -2.9660    -1.2070 h1         1 0SJ       0.060200
     32 H9           2.9980    -2.8790    -1.5890 hc         1 0SJ       0.057200
     33 H10          3.7340    -1.3700    -2.1350 hc         1 0SJ       0.057200
     34 H11          4.1120    -1.7270     0.3080 hc         1 0SJ       0.077700
     35 H12          2.1250    -3.0780     0.8230 h1         1 0SJ       0.070200
     36 H13          2.1870    -1.6870     1.9020 h1         1 0SJ       0.070200
     37 H14         -1.9210    -2.6220     0.2230 ha         1 0SJ       0.130500
     38 H15         -4.3200    -2.3160    -0.3210 ha         1 0SJ       0.134500
     39 H19         -4.0650     1.8440     0.7790 ha         1 0SJ       0.134500
     40 H20         -1.6550     1.5660     1.3130 ha         1 0SJ       0.130500
@<TRIPOS>BOND
     1     1     2 2   
     2     2     3 1   
     3     2     7 1   
     4     3     4 2   
     5     3    24 1   
     6     4     5 1   
     7     4    25 1   
     8     5     6 2   
     9     5    26 1   
    10     6     7 1   
    11     6    12 1   
    12     7     8 1   
    13     8     9 1   
    14     8    27 1   
    15     8    28 1   
    16     9    10 1   
    17     9    11 1   
    18     9    29 1   
    19    10    14 1   
    20    10    30 1   
    21    10    31 1   
    22    11    12 1   
    23    11    32 1   
    24    11    33 1   
    25    12    13 1   
    26    12    34 1   
    27    13    14 1   
    28    13    35 1   
    29    13    36 1   
    30    14    15 1   
    31    15    16 2   
    32    15    17 1   
    33    17    18 ar  
    34    17    23 ar  
    35    18    19 ar  
    36    18    37 1   
    37    19    20 ar  
    38    19    38 1   
    39    20    21 1   
    40    20    22 ar  
    41    22    23 ar  
    42    22    39 1   
    43    23    40 1   
@<TRIPOS>SUBSTRUCTURE
     1 0SJ         1 TEMP              0 ****  ****    0 ROOT
