@<TRIPOS>MOLECULE
0SJ
   40    43     1     0     0
SMALL
bcc


@<TRIPOS>ATOM
      1 OAB          1.0060     2.7830    -1.2010 o          1 0SJ      -0.653500
      2 CAU          1.8180     2.2100    -0.4760 c          1 0SJ       0.690700
      3 CAL          2.5490     2.8450     0.5790 cc         1 0SJ      -0.274200
      4 CAF          3.4650     2.1620     1.3140 cd         1 0SJ      -0.022000
      5 CAG          3.6940     0.7970     1.0670 cd         1 0SJ      -0.243000
      6 CAT          2.9850     0.1620     0.0910 cc         1 0SJ       0.080400
      7 NAY          2.0810     0.8490    -0.6660 n          1 0SJ      -0.332000
      8 CAP          1.3850     0.2480    -1.8170 c6         1 0SJ       0.088000
      9 CAV          1.5000    -1.2660    -1.9190 c6         1 0SJ      -0.102700
     10 CAN          0.4860    -1.9800    -1.0240 c6         1 0SJ       0.101000
     11 CAM          2.9120    -1.7010    -1.5690 c6         1 0SJ      -0.072400
     12 CAW          3.1320    -1.3190    -0.1140 c6         1 0SJ      -0.058500
     13 CAO          2.1090    -2.0490     0.7710 c6         1 0SJ       0.093000
     14 NAX          0.7570    -1.7010     0.3780 n          1 0SJ      -0.469800
     15 CAQ          0.0060    -0.8940     1.1610 c          1 0SJ       0.685700
     16 OAA          0.4040    -0.4240     2.2170 o          1 0SJ      -0.578100
     17 CAR         -1.3920    -0.5990     0.7150 ca         1 0SJ      -0.147600
     18 CAH         -2.3220    -1.6170     0.5280 ca         1 0SJ      -0.086000
     19 CAJ         -3.6400    -1.3200     0.2180 ca         1 0SJ      -0.127000
     20 CAS         -4.0170     0.0070     0.0810 ca         1 0SJ       0.040400
     21 CL1         -5.6580     0.3870    -0.3210 cl         1 0SJ      -0.106400
     22 CAK         -3.1050     1.0360     0.2610 ca         1 0SJ      -0.127000
     23 CAI         -1.7960     0.7260     0.5940 ca         1 0SJ      -0.086000
     24 H1           2.3520     3.8950     0.7510 ha         1 0SJ       0.158000
     25 H2           4.0190     2.6670     2.0950 ha         1 0SJ       0.137000
     26 H3           4.4010     0.2310     1.6560 ha         1 0SJ       0.145000
     27 H4           0.3370     0.5440    -1.7680 h1         1 0SJ       0.070700
     28 H5           1.7960     0.7030    -2.7200 h1         1 0SJ       0.070700
     29 H6           1.2600    -1.5290    -2.9510 hc         1 0SJ       0.070700
     30 H7          -0.5200    -1.6650    -1.2870 h1         1 0SJ       0.060200
     31 H8           0.5440    -3.0590    -1.1900 h1         1 0SJ       0.060200
     32 H9           3.0300    -2.7800    -1.6940 hc         1 0SJ       0.057200
     33 H10          3.6470    -1.2190    -2.2180 hc         1 0SJ       0.057200
     34 H11          4.1300    -1.6080     0.2220 hc         1 0SJ       0.077700
     35 H12          2.2430    -3.1280     0.6490 h1         1 0SJ       0.070200
     36 H13          2.2590    -1.8080     1.8200 h1         1 0SJ       0.070200
     37 H14         -2.0260    -2.6530     0.6310 ha         1 0SJ       0.148500
     38 H15         -4.3600    -2.1150     0.0850 ha         1 0SJ       0.152500
     39 H19         -3.4100     2.0680     0.1500 ha         1 0SJ       0.152500
     40 H20         -1.0880     1.5310     0.7450 ha         1 0SJ       0.148500
@<TRIPOS>BOND
     1     1     2 2   
     2     2     3 1   
     3     2     7 1   
     4     3     4 2   
     5     3    24 1   
     6     4     5 1   
     7     4    25 1   
     8     5     6 2   
     9     5    26 1   
    10     6     7 1   
    11     6    12 1   
    12     7     8 1   
    13     8     9 1   
    14     8    27 1   
    15     8    28 1   
    16     9    10 1   
    17     9    11 1   
    18     9    29 1   
    19    10    14 1   
    20    10    30 1   
    21    10    31 1   
    22    11    12 1   
    23    11    32 1   
    24    11    33 1   
    25    12    13 1   
    26    12    34 1   
    27    13    14 1   
    28    13    35 1   
    29    13    36 1   
    30    14    15 1   
    31    15    16 2   
    32    15    17 1   
    33    17    18 ar  
    34    17    23 ar  
    35    18    19 ar  
    36    18    37 1   
    37    19    20 ar  
    38    19    38 1   
    39    20    21 1   
    40    20    22 ar  
    41    22    23 ar  
    42    22    39 1   
    43    23    40 1   
@<TRIPOS>SUBSTRUCTURE
     1 0SJ         1 TEMP              0 ****  ****    0 ROOT
