@<TRIPOS>MOLECULE
0SK
   46    49     1     0     0
SMALL
abcg2


@<TRIPOS>ATOM
      1 NBE          2.0930     2.8910    -0.1330 nu         1 0SK      -0.671700
      2 OAE          3.1150     3.8230    -0.1240 oh         1 0SK      -0.448300
      3 CAX          2.5310     1.5730    -0.0150 ca         1 0SK       0.230000
      4 CBB          1.5800     0.5440    -0.1310 ca         1 0SK      -0.101000
      5 SAV         -0.0720     1.0550    -0.3830 ss         1 0SK      -0.072200
      6 CAJ          3.8460     1.2400     0.2710 ca         1 0SK      -0.063000
      7 CAW          4.2080    -0.0930     0.4210 ca         1 0SK      -0.185300
      8 CBG          5.6310    -0.4670     0.7020 c3         1 0SK       0.359300
      9 FAG          6.2080    -1.0390    -0.3650 f          1 0SK      -0.110333
     10 FAH          6.3850     0.5830     1.0370 f          1 0SK      -0.110333
     11 FAF          5.7210    -1.3530     1.7030 f          1 0SK      -0.110333
     12 CAK          3.2780    -1.1030     0.2730 ca         1 0SK      -0.017000
     13 CBA          1.9510    -0.7870    -0.0040 ca         1 0SK      -0.162600
     14 CAZ          0.9740    -1.9020    -0.1470 c          1 0SK       0.748100
     15 OAD          1.3430    -3.0490     0.0450 o          1 0SK      -0.524100
     16 NAR         -0.3100    -1.6580    -0.5070 nc         1 0SK      -0.785100
     17 CAY         -0.8650    -0.4980    -0.6580 cd         1 0SK       0.769100
     18 NBF         -2.1420    -0.4070    -1.0330 nh         1 0SK      -0.724600
     19 CAM         -2.9890    -1.5940    -1.1110 c6         1 0SK       0.216800
     20 CAO         -3.9810    -1.5970     0.0470 c6         1 0SK      -0.117400
     21 CAL         -2.9090     0.8280    -1.1070 c6         1 0SK       0.216800
     22 CAN         -3.8860     0.9060     0.0590 c6         1 0SK      -0.117400
     23 CBH         -4.8080    -0.3190     0.0770 c5         1 0SK       0.392000
     24 OAT         -5.6330    -0.2860     1.2170 os         1 0SK      -0.470000
     25 OAS         -5.6710    -0.3120    -1.0340 os         1 0SK      -0.462000
     26 CAP         -6.8330     0.3840    -0.6360 c5         1 0SK       0.120600
     27 CBD         -6.9740     0.0070     0.8350 c5         1 0SK       0.141300
     28 CAA         -7.5650     1.0960     1.7000 c3         1 0SK      -0.098100
     29 H1           1.5350     3.0580    -0.9640 hn         1 0SK       0.464000
     30 H2           2.9970     4.3080     0.7010 ho         1 0SK       0.467000
     31 H3           4.5770     2.0280     0.3710 ha         1 0SK       0.150000
     32 H4           3.5530    -2.1430     0.3810 ha         1 0SK       0.159000
     33 H5          -3.5090    -1.5700    -2.0700 h1         1 0SK       0.076200
     34 H6          -2.3690    -2.4830    -1.0910 h1         1 0SK       0.076200
     35 H7          -4.6400    -2.4640    -0.0400 hc         1 0SK       0.071950
     36 H8          -3.4350    -1.6880     0.9890 hc         1 0SK       0.071950
     37 H9          -2.2650     1.7040    -1.1290 h1         1 0SK       0.076200
     38 H10         -3.4460     0.8260    -2.0580 h1         1 0SK       0.076200
     39 H11         -3.3320     0.9530     1.0000 hc         1 0SK       0.071950
     40 H12         -4.4690     1.8270    -0.0190 hc         1 0SK       0.071950
     41 H13         -6.7210     1.4690    -0.7630 h1         1 0SK       0.059200
     42 H14         -7.6730     0.0530    -1.2450 h1         1 0SK       0.059200
     43 H15         -7.5760    -0.9040     0.9310 h1         1 0SK       0.062700
     44 H16         -6.9830     2.0170     1.6330 hc         1 0SK       0.047700
     45 H17         -8.5830     1.3130     1.3730 hc         1 0SK       0.047700
     46 H18         -7.6130     0.7920     2.7450 hc         1 0SK       0.047700
@<TRIPOS>BOND
     1     1     2 1   
     2     1     3 1   
     3     1    29 1   
     4     2    30 1   
     5     3     4 ar  
     6     3     6 ar  
     7     4     5 1   
     8     4    13 ar  
     9     5    17 1   
    10     6     7 ar  
    11     6    31 1   
    12     7     8 1   
    13     7    12 ar  
    14     8     9 1   
    15     8    10 1   
    16     8    11 1   
    17    12    13 ar  
    18    12    32 1   
    19    13    14 1   
    20    14    15 2   
    21    14    16 1   
    22    16    17 2   
    23    17    18 1   
    24    18    19 1   
    25    18    21 1   
    26    19    20 1   
    27    19    33 1   
    28    19    34 1   
    29    20    23 1   
    30    20    35 1   
    31    20    36 1   
    32    21    22 1   
    33    21    37 1   
    34    21    38 1   
    35    22    23 1   
    36    22    39 1   
    37    22    40 1   
    38    23    24 1   
    39    23    25 1   
    40    24    27 1   
    41    25    26 1   
    42    26    27 1   
    43    26    41 1   
    44    26    42 1   
    45    27    28 1   
    46    27    43 1   
    47    28    44 1   
    48    28    45 1   
    49    28    46 1   
@<TRIPOS>SUBSTRUCTURE
     1 0SK         1 TEMP              0 ****  ****    0 ROOT
