@<TRIPOS>MOLECULE
0SK
   46    49     1     0     0
SMALL
No Charge or Current Charge


@<TRIPOS>ATOM
      1 NBE          2.2120     2.7400     1.0550 nu         1 0SK      -0.671700
      2 OAE          2.8160     3.9060     0.4140 oh         1 0SK      -0.448300
      3 CAX          2.6270     1.4740     0.5920 ca         1 0SK       0.230000
      4 CBB          1.7030     0.4030     0.5310 ca         1 0SK      -0.101000
      5 SAV          0.0180     0.6820     1.0900 ss         1 0SK      -0.072200
      6 CAJ          3.9670     1.2630     0.2130 ca         1 0SK      -0.063000
      7 CAW          4.4060    -0.0020    -0.2240 ca         1 0SK      -0.185300
      8 CBG          5.8630    -0.2280    -0.6450 c3         1 0SK       0.359300
      9 FAG          6.0150    -0.0850    -1.9810 f          1 0SK      -0.110333
     10 FAH          6.7150     0.6420    -0.0560 f          1 0SK      -0.110333
     11 FAF          6.2990    -1.4680    -0.3280 f          1 0SK      -0.110333
     12 CAK          3.4740    -1.0550    -0.2940 ca         1 0SK      -0.017000
     13 CBA          2.1250    -0.8650     0.0810 ca         1 0SK      -0.162600
     14 CAZ          1.1770    -2.0260    -0.0320 c          1 0SK       0.748100
     15 OAD          1.5900    -3.1670    -0.1600 o          1 0SK      -0.524100
     16 NAR         -0.1680    -1.8110    -0.0570 nc         1 0SK      -0.785100
     17 CAY         -0.7530    -0.6680     0.2170 cd         1 0SK       0.769100
     18 NBF         -2.1510    -0.6330     0.0960 nh         1 0SK      -0.724600
     19 CAM         -2.9520    -1.8560    -0.2060 c6         1 0SK       0.216800
     20 CAO         -4.3200    -1.7850     0.5030 c6         1 0SK      -0.117400
     21 CAL         -2.8420     0.6290    -0.2850 c6         1 0SK       0.216800
     22 CAN         -4.2050     0.7360     0.4300 c6         1 0SK      -0.117400
     23 CBH         -5.0920    -0.5050     0.1280 c5         1 0SK       0.392000
     24 OAT         -6.3390    -0.4680     0.8480 os         1 0SK      -0.470000
     25 OAS         -5.5040    -0.5510    -1.2460 os         1 0SK      -0.462000
     26 CAP         -6.6200     0.3600    -1.3600 c5         1 0SK       0.120600
     27 CBD         -7.2900     0.2800     0.0490 c5         1 0SK       0.141300
     28 CAA         -7.6160     1.6350     0.7150 c3         1 0SK      -0.098100
     29 H1           1.1930     2.8540     1.1350 hn         1 0SK       0.464000
     30 H2           2.9660     4.5850     1.1210 ho         1 0SK       0.467000
     31 H3           4.6680     2.0910     0.2700 ha         1 0SK       0.150000
     32 H4           3.8020    -2.0310    -0.6520 ha         1 0SK       0.159000
     33 H5          -3.1030    -1.9530    -1.2920 h1         1 0SK       0.076200
     34 H6          -2.4480    -2.7730     0.1320 h1         1 0SK       0.076200
     35 H7          -4.9180    -2.6670     0.2420 hc         1 0SK       0.071950
     36 H8          -4.1690    -1.8160     1.5890 hc         1 0SK       0.071950
     37 H9          -2.2490     1.5210    -0.0410 h1         1 0SK       0.076200
     38 H10         -3.0040     0.6510    -1.3730 h1         1 0SK       0.076200
     39 H11         -4.0440     0.8140     1.5130 hc         1 0SK       0.071950
     40 H12         -4.6900     1.6670     0.1190 hc         1 0SK       0.071950
     41 H13         -6.2500     1.3680    -1.5880 h1         1 0SK       0.059200
     42 H14         -7.2880     0.0360    -2.1690 h1         1 0SK       0.059200
     43 H15         -8.2180    -0.3050    -0.0080 h1         1 0SK       0.062700
     44 H16         -6.7300     2.2650     0.8380 hc         1 0SK       0.047700
     45 H17         -8.3410     2.1960     0.1130 hc         1 0SK       0.047700
     46 H18         -8.0580     1.4820     1.7060 hc         1 0SK       0.047700
@<TRIPOS>BOND
     1     1     2 1   
     2     1     3 1   
     3     1    29 1   
     4     2    30 1   
     5     3     4 ar  
     6     3     6 ar  
     7     4     5 1   
     8     4    13 ar  
     9     5    17 1   
    10     6     7 ar  
    11     6    31 1   
    12     7     8 1   
    13     7    12 ar  
    14     8     9 1   
    15     8    10 1   
    16     8    11 1   
    17    12    13 ar  
    18    12    32 1   
    19    13    14 1   
    20    14    15 2   
    21    14    16 1   
    22    16    17 2   
    23    17    18 1   
    24    18    19 1   
    25    18    21 1   
    26    19    20 1   
    27    19    33 1   
    28    19    34 1   
    29    20    23 1   
    30    20    35 1   
    31    20    36 1   
    32    21    22 1   
    33    21    37 1   
    34    21    38 1   
    35    22    23 1   
    36    22    39 1   
    37    22    40 1   
    38    23    24 1   
    39    23    25 1   
    40    24    27 1   
    41    25    26 1   
    42    26    27 1   
    43    26    41 1   
    44    26    42 1   
    45    27    28 1   
    46    27    43 1   
    47    28    44 1   
    48    28    45 1   
    49    28    46 1   
@<TRIPOS>SUBSTRUCTURE
     1 0SK         1 TEMP              0 ****  ****    0 ROOT
