@<TRIPOS>MOLECULE
0SL
   38    40     1     0     0
SMALL
abcg2


@<TRIPOS>ATOM
      1 CAK          1.9900     0.9450     0.2560 ca         1 0SL       0.005000
      2 CAS          3.0770     0.2740    -0.3460 ca         1 0SL      -0.066000
      3 CAI          4.0020     0.9570    -1.1710 ca         1 0SL      -0.084000
      4 CAF          5.0460     0.2850    -1.7430 ca         1 0SL      -0.125000
      5 CAE          5.2150    -1.0970    -1.5140 ca         1 0SL      -0.102000
      6 CAH          4.3370    -1.7820    -0.7190 ca         1 0SL      -0.107000
      7 CAR          3.2450    -1.1160    -0.1180 ca         1 0SL       0.001000
      8 CAJ          2.3170    -1.7950     0.7060 ca         1 0SL      -0.120000
      9 CAG          1.2650    -1.1350     1.2750 ca         1 0SL      -0.017000
     10 CAQ          1.1090     0.2480     1.0400 ca         1 0SL      -0.284500
     11 SAV         -0.3010     1.0850     1.7150 sy         1 0SL       1.128600
     12 OAB         -0.7550     0.3320     2.8740 o          1 0SL      -0.552000
     13 OAC          0.0410     2.4900     1.8770 o          1 0SL      -0.552000
     14 NAU         -1.4890     0.9970     0.5710 n3         1 0SL      -0.691500
     15 CAO         -2.0330    -0.3430     0.2980 c6         1 0SL       0.201800
     16 CAN         -1.2700     1.7920    -0.6420 c6         1 0SL       0.188800
     17 CAL         -2.5890     1.9570    -1.3780 c6         1 0SL      -0.074400
     18 CAM         -3.2120     0.6050    -1.6940 c6         1 0SL      -0.056400
     19 CAT         -3.3680    -0.2260    -0.4240 c6         1 0SL      -0.194700
     20 CAP         -3.9940    -1.6120    -0.6980 c          1 0SL       0.724000
     21 OAD         -3.5120    -2.5880    -0.0900 o          1 0SL      -0.728500
     22 OAA         -4.9490    -1.6360    -1.4980 o          1 0SL      -0.728500
     23 H1           1.8740     2.0080     0.0870 ha         1 0SL       0.129000
     24 H2           3.8690     2.0180    -1.3450 ha         1 0SL       0.112000
     25 H3           5.7490     0.8120    -2.3750 ha         1 0SL       0.106000
     26 H4           6.0480    -1.6150    -1.9720 ha         1 0SL       0.106000
     27 H5           4.4700    -2.8420    -0.5420 ha         1 0SL       0.113000
     28 H6           2.4500    -2.8530     0.8900 ha         1 0SL       0.115000
     29 H7           0.5690    -1.6680     1.9070 ha         1 0SL       0.148000
     30 H8          -1.3280    -0.9190    -0.3180 h1         1 0SL       0.062200
     31 H9          -2.1670    -0.8710     1.2380 h1         1 0SL       0.062200
     32 H10         -0.8710     2.7670    -0.3720 h1         1 0SL       0.037200
     33 H11         -0.5420     1.2960    -1.2990 h1         1 0SL       0.037200
     34 H12         -3.2710     2.5490    -0.7610 hc         1 0SL       0.033200
     35 H13         -2.4040     2.5240    -2.2920 hc         1 0SL       0.033200
     36 H14         -4.1800     0.7330    -2.1770 hc         1 0SL       0.046200
     37 H15         -2.5690     0.0710    -2.4030 hc         1 0SL       0.046200
     38 H16         -4.0560     0.3110     0.2430 hc         1 0SL       0.046700
@<TRIPOS>BOND
     1     1     2 ar  
     2     1    10 ar  
     3     1    23 1   
     4     2     3 ar  
     5     2     7 ar  
     6     3     4 ar  
     7     3    24 1   
     8     4     5 ar  
     9     4    25 1   
    10     5     6 ar  
    11     5    26 1   
    12     6     7 ar  
    13     6    27 1   
    14     7     8 ar  
    15     8     9 ar  
    16     8    28 1   
    17     9    10 ar  
    18     9    29 1   
    19    10    11 1   
    20    11    12 2   
    21    11    13 2   
    22    11    14 1   
    23    14    15 1   
    24    14    16 1   
    25    15    19 1   
    26    15    30 1   
    27    15    31 1   
    28    16    17 1   
    29    16    32 1   
    30    16    33 1   
    31    17    18 1   
    32    17    34 1   
    33    17    35 1   
    34    18    19 1   
    35    18    36 1   
    36    18    37 1   
    37    19    20 1   
    38    19    38 1   
    39    20    21 1   
    40    20    22 1   
@<TRIPOS>SUBSTRUCTURE
     1 0SL         1 TEMP              0 ****  ****    0 ROOT
