@<TRIPOS>MOLECULE
0SL
   38    40     1     0     0
SMALL
No Charge or Current Charge


@<TRIPOS>ATOM
      1 CAK          1.9820     0.9790     0.2940 ca         1 0SL       0.005000
      2 CAS          3.0430     0.2880    -0.3220 ca         1 0SL      -0.066000
      3 CAI          3.9810     0.9830    -1.1090 ca         1 0SL      -0.084000
      4 CAF          5.0380     0.2890    -1.7230 ca         1 0SL      -0.125000
      5 CAE          5.1620    -1.1000    -1.5520 ca         1 0SL      -0.102000
      6 CAH          4.2280    -1.7980    -0.7670 ca         1 0SL      -0.107000
      7 CAR          3.1680    -1.1080    -0.1510 ca         1 0SL       0.001000
      8 CAJ          2.2310    -1.8030     0.6360 ca         1 0SL      -0.120000
      9 CAG          1.1710    -1.1150     1.2500 ca         1 0SL      -0.017000
     10 CAQ          1.0410     0.2790     1.0770 ca         1 0SL      -0.284500
     11 SAV         -0.3220     1.1660     1.8560 sy         1 0SL       1.128600
     12 OAB         -0.8140     0.3980     3.0070 o          1 0SL      -0.552000
     13 OAC          0.0280     2.5840     2.0050 o          1 0SL      -0.552000
     14 NAU         -1.5540     1.1000     0.6760 n3         1 0SL      -0.691500
     15 CAO         -2.0950    -0.2640     0.4250 c6         1 0SL       0.201800
     16 CAN         -1.2210     1.7860    -0.6000 c6         1 0SL       0.188800
     17 CAL         -2.4530     1.8960    -1.5290 c6         1 0SL      -0.074400
     18 CAM         -3.0600     0.5040    -1.8060 c6         1 0SL      -0.056400
     19 CAT         -3.3580    -0.2200    -0.4670 c6         1 0SL      -0.194700
     20 CAP         -3.9270    -1.6350    -0.6700 c          1 0SL       0.724000
     21 OAD         -3.2320    -2.4660    -1.2360 o          1 0SL      -0.728500
     22 OAA         -5.0510    -1.8660    -0.2500 o          1 0SL      -0.728500
     23 H1           1.8900     2.0550     0.1590 ha         1 0SL       0.129000
     24 H2           3.8930     2.0590    -1.2470 ha         1 0SL       0.112000
     25 H3           5.7620     0.8290    -2.3300 ha         1 0SL       0.106000
     26 H4           5.9810    -1.6360    -2.0280 ha         1 0SL       0.106000
     27 H5           4.3300    -2.8740    -0.6390 ha         1 0SL       0.113000
     28 H6           2.3220    -2.8780     0.7740 ha         1 0SL       0.115000
     29 H7           0.4550    -1.6680     1.8570 ha         1 0SL       0.148000
     30 H8          -1.3330    -0.8960    -0.0570 h1         1 0SL       0.062200
     31 H9          -2.3670    -0.7560     1.3700 h1         1 0SL       0.062200
     32 H10         -0.8480     2.8030    -0.4090 h1         1 0SL       0.037200
     33 H11         -0.4240     1.2430    -1.1300 h1         1 0SL       0.037200
     34 H12         -3.2070     2.5460    -1.0640 hc         1 0SL       0.033200
     35 H13         -2.1650     2.3750    -2.4740 hc         1 0SL       0.033200
     36 H14         -3.9810     0.6050    -2.3970 hc         1 0SL       0.046200
     37 H15         -2.3600    -0.0890    -2.4100 hc         1 0SL       0.046200
     38 H16         -4.1230     0.3610     0.0670 hc         1 0SL       0.046700
@<TRIPOS>BOND
     1     1     2 ar  
     2     1    10 ar  
     3     1    23 1   
     4     2     3 ar  
     5     2     7 ar  
     6     3     4 ar  
     7     3    24 1   
     8     4     5 ar  
     9     4    25 1   
    10     5     6 ar  
    11     5    26 1   
    12     6     7 ar  
    13     6    27 1   
    14     7     8 ar  
    15     8     9 ar  
    16     8    28 1   
    17     9    10 ar  
    18     9    29 1   
    19    10    11 1   
    20    11    12 2   
    21    11    13 2   
    22    11    14 1   
    23    14    15 1   
    24    14    16 1   
    25    15    19 1   
    26    15    30 1   
    27    15    31 1   
    28    16    17 1   
    29    16    32 1   
    30    16    33 1   
    31    17    18 1   
    32    17    34 1   
    33    17    35 1   
    34    18    19 1   
    35    18    36 1   
    36    18    37 1   
    37    19    20 1   
    38    19    38 1   
    39    20    21 1   
    40    20    22 1   
@<TRIPOS>SUBSTRUCTURE
     1 0SL         1 TEMP              0 ****  ****    0 ROOT
