@<TRIPOS>MOLECULE
0SM
   93    92     1     0     0
SMALL
No Charge or Current Charge


@<TRIPOS>ATOM
      1 C1          -6.6620     1.3840    -0.2890 c3         1 0SM       0.209600
      2 C3          -4.4140     2.7380     2.6790 c3         1 0SM      -0.130100
      3 C4          -7.6330    -2.7370    -1.2120 c3         1 0SM       0.213600
      4 C5          -8.0250    -3.5380     0.0580 c3         1 0SM       0.088600
      5 C6          -8.9210    -1.5810     1.3980 c3         1 0SM       0.074567
      6 C7          -8.6420    -3.8190     2.4660 c3         1 0SM       0.074567
      7 C8          -6.6280    -2.4720     1.8880 c3         1 0SM       0.074567
      8 C11         -3.2450     2.7930    -0.6550 c          1 0SM       0.601100
      9 C12         -2.0190     2.2770    -1.4130 c3         1 0SM      -0.156400
     10 C13         -0.7730     2.2210    -0.4980 c3         1 0SM      -0.067400
     11 C14          0.4860     1.6990    -1.2220 c3         1 0SM      -0.076400
     12 C15          1.7300     1.6440    -0.3090 c3         1 0SM      -0.074400
     13 C16          2.9900     1.1210    -1.0330 c3         1 0SM      -0.074400
     14 C17          4.2340     1.0680    -0.1200 c3         1 0SM      -0.074400
     15 C18          5.4940     0.5460    -0.8450 c3         1 0SM      -0.074400
     16 C19          6.7390     0.4940     0.0670 c3         1 0SM      -0.074400
     17 C20          7.9980    -0.0280    -0.6580 c3         1 0SM      -0.074400
     18 C21          9.2440    -0.0780     0.2540 c3         1 0SM      -0.074400
     19 C22         10.5030    -0.6000    -0.4720 c3         1 0SM      -0.074400
     20 C23         11.7490    -0.6490     0.4400 c3         1 0SM      -0.074400
     21 C24         13.0080    -1.1710    -0.2860 c3         1 0SM      -0.074400
     22 C25         14.2550    -1.2200     0.6250 c3         1 0SM      -0.074400
     23 C26         15.5140    -1.7420    -0.1010 c3         1 0SM      -0.075400
     24 C27         16.7600    -1.7910     0.8090 c3         1 0SM      -0.074400
     25 C28         18.0170    -2.3110     0.0850 c3         1 0SM      -0.088100
     26 N           -8.0490    -2.8440     1.4410 n4         1 0SM      -0.487000
     27 O2          -4.7380     0.4190     2.1330 oh         1 0SM      -0.661000
     28 O11         -3.3940     3.9730    -0.3700 o          1 0SM      -0.624100
     29 O1P         -4.3700    -0.6710    -1.5320 o          1 0SM      -0.803000
     30 O2P         -6.4580    -0.4760    -2.8570 o          1 0SM      -0.803000
     31 O3P         -6.5520    -0.0500    -0.3210 os         1 0SM      -0.608400
     32 NBQ         -4.1810     1.8360    -0.3500 ns         1 0SM      -0.486900
     33 O4P         -6.2620    -2.3280    -1.1090 os         1 0SM      -0.590400
     34 CBV         -5.4310     2.0600     0.3940 c3         1 0SM       0.111700
     35 P           -5.8510    -0.8330    -1.5420 p5         1 0SM       1.378800
     36 CBU         -5.2960     1.7250     1.9190 c3         1 0SM       0.163300
     37 H11C        -6.7630     1.7860    -1.3060 h1         1 0SM       0.041200
     38 H12C        -7.5680     1.6720     0.2580 h1         1 0SM       0.041200
     39 HBV         -5.6500     3.1350     0.3430 h1         1 0SM       0.081700
     40 H31C        -4.7950     3.7570     2.5430 hc         1 0SM       0.043367
     41 H32C        -4.4120     2.5200     3.7540 hc         1 0SM       0.043367
     42 H33C        -3.3780     2.7070     2.3210 hc         1 0SM       0.043367
     43 HBU         -6.3010     1.7730     2.3630 h1         1 0SM       0.032700
     44 H41C        -7.7690    -3.3800    -2.0910 h1         1 0SM       0.061700
     45 H42C        -8.3110    -1.8800    -1.3200 h1         1 0SM       0.061700
     46 H51C        -9.0300    -3.9300    -0.1090 hx         1 0SM       0.078200
     47 H52C        -7.3500    -4.3920     0.1390 hx         1 0SM       0.078200
     48 H61C        -9.9330    -1.8500     1.0870 hx         1 0SM       0.094922
     49 H62C        -8.9490    -1.1290     2.3910 hx         1 0SM       0.094922
     50 H63C        -8.4940    -0.8720     0.6870 hx         1 0SM       0.094922
     51 H71C        -8.0230    -4.7170     2.5080 hx         1 0SM       0.094922
     52 H72C        -8.6630    -3.3410     3.4480 hx         1 0SM       0.094922
     53 H73C        -9.6570    -4.0860     2.1660 hx         1 0SM       0.094922
     54 H81C        -6.2070    -1.7420     1.1970 hx         1 0SM       0.094922
     55 H82C        -6.6670    -2.0410     2.8900 hx         1 0SM       0.094922
     56 H83C        -6.0070    -3.3690     1.8950 hx         1 0SM       0.094922
     57 H121        -2.2120     1.2680    -1.7950 hc         1 0SM       0.057700
     58 H122        -1.8090     2.9570    -2.2470 hc         1 0SM       0.057700
     59 HBQ         -3.9860     0.8850    -0.6590 hn         1 0SM       0.327500
     60 H131        -0.5710     3.2240    -0.1010 hc         1 0SM       0.052200
     61 H132        -0.9890     1.5750     0.3630 hc         1 0SM       0.052200
     62 H141         0.2840     0.6950    -1.6170 hc         1 0SM       0.035700
     63 H142         0.7000     2.3440    -2.0840 hc         1 0SM       0.035700
     64 H151         1.9320     2.6480     0.0860 hc         1 0SM       0.038700
     65 H152         1.5160     0.9980     0.5530 hc         1 0SM       0.038700
     66 H161         2.7880     0.1170    -1.4260 hc         1 0SM       0.036700
     67 H162         3.2030     1.7660    -1.8950 hc         1 0SM       0.036700
     68 H171         4.4350     2.0730     0.2730 hc         1 0SM       0.037200
     69 H172         4.0210     0.4230     0.7420 hc         1 0SM       0.037200
     70 H181         5.2930    -0.4590    -1.2370 hc         1 0SM       0.036700
     71 H182         5.7060     1.1900    -1.7080 hc         1 0SM       0.036700
     72 H191         6.9390     1.4990     0.4590 hc         1 0SM       0.037200
     73 H192         6.5270    -0.1500     0.9300 hc         1 0SM       0.037200
     74 H201         7.7980    -1.0330    -1.0490 hc         1 0SM       0.037200
     75 H202         8.2090     0.6160    -1.5210 hc         1 0SM       0.037200
     76 H211         9.4440     0.9270     0.6450 hc         1 0SM       0.037200
     77 H212         9.0330    -0.7220     1.1170 hc         1 0SM       0.037200
     78 H221        10.3030    -1.6050    -0.8630 hc         1 0SM       0.037200
     79 H222        10.7140     0.0440    -1.3350 hc         1 0SM       0.037200
     80 H231        11.9490     0.3560     0.8300 hc         1 0SM       0.037200
     81 H232        11.5380    -1.2930     1.3030 hc         1 0SM       0.037200
     82 H241        12.8080    -2.1770    -0.6770 hc         1 0SM       0.036700
     83 H242        13.2190    -0.5280    -1.1500 hc         1 0SM       0.036700
     84 H251        14.4550    -0.2150     1.0160 hc         1 0SM       0.036700
     85 H252        14.0440    -1.8640     1.4880 hc         1 0SM       0.036700
     86 H261        15.3140    -2.7470    -0.4920 hc         1 0SM       0.036700
     87 H262        15.7240    -1.0980    -0.9650 hc         1 0SM       0.036700
     88 H271        16.9650    -0.7860     1.2000 hc         1 0SM       0.036700
     89 H272        16.5540    -2.4350     1.6730 hc         1 0SM       0.036700
     90 H281        17.8560    -3.3300    -0.2880 hc         1 0SM       0.031367
     91 H282        18.2700    -1.6660    -0.7650 hc         1 0SM       0.031367
     92 H283        18.8730    -2.3280     0.7700 hc         1 0SM       0.031367
     93 H2          -4.5820     0.3310     3.0970 ho         1 0SM       0.422000
@<TRIPOS>BOND
     1     1    31 1   
     2     1    34 1   
     3     1    37 1   
     4     1    38 1   
     5     2    36 1   
     6     2    40 1   
     7     2    41 1   
     8     2    42 1   
     9     3     4 1   
    10     3    33 1   
    11     3    44 1   
    12     3    45 1   
    13     4    26 1   
    14     4    46 1   
    15     4    47 1   
    16     5    26 1   
    17     5    48 1   
    18     5    49 1   
    19     5    50 1   
    20     6    26 1   
    21     6    51 1   
    22     6    52 1   
    23     6    53 1   
    24     7    26 1   
    25     7    54 1   
    26     7    55 1   
    27     7    56 1   
    28     8     9 1   
    29     8    28 2   
    30     8    32 1   
    31     9    10 1   
    32     9    57 1   
    33     9    58 1   
    34    10    11 1   
    35    10    60 1   
    36    10    61 1   
    37    11    12 1   
    38    11    62 1   
    39    11    63 1   
    40    12    13 1   
    41    12    64 1   
    42    12    65 1   
    43    13    14 1   
    44    13    66 1   
    45    13    67 1   
    46    14    15 1   
    47    14    68 1   
    48    14    69 1   
    49    15    16 1   
    50    15    70 1   
    51    15    71 1   
    52    16    17 1   
    53    16    72 1   
    54    16    73 1   
    55    17    18 1   
    56    17    74 1   
    57    17    75 1   
    58    18    19 1   
    59    18    76 1   
    60    18    77 1   
    61    19    20 1   
    62    19    78 1   
    63    19    79 1   
    64    20    21 1   
    65    20    80 1   
    66    20    81 1   
    67    21    22 1   
    68    21    82 1   
    69    21    83 1   
    70    22    23 1   
    71    22    84 1   
    72    22    85 1   
    73    23    24 1   
    74    23    86 1   
    75    23    87 1   
    76    24    25 1   
    77    24    88 1   
    78    24    89 1   
    79    25    90 1   
    80    25    91 1   
    81    25    92 1   
    82    27    36 1   
    83    27    93 1   
    84    29    35 1   
    85    30    35 1   
    86    31    35 1   
    87    32    34 1   
    88    32    59 1   
    89    33    35 1   
    90    34    36 1   
    91    34    39 1   
    92    36    43 1   
@<TRIPOS>SUBSTRUCTURE
     1 0SM         1 TEMP              0 ****  ****    0 ROOT
