@<TRIPOS>MOLECULE
0SM
   93    92     1     0     0
SMALL
abcg2


@<TRIPOS>ATOM
      1 C1          -6.1500     2.0620    -0.7500 c3         1 0SM       0.209600
      2 C3          -4.8170     2.8330     2.8340 c3         1 0SM      -0.130100
      3 C4          -8.3300    -2.2750    -1.8280 c3         1 0SM       0.213600
      4 C5          -8.4380    -3.2140    -0.6480 c3         1 0SM       0.088600
      5 C6          -9.8830    -1.6370     0.6020 c3         1 0SM       0.074567
      6 C7          -9.1580    -3.7210     1.5990 c3         1 0SM       0.074567
      7 C8          -7.5690    -1.9290     1.2940 c3         1 0SM       0.074567
      8 C11         -2.7520     2.0150     0.0570 c          1 0SM       0.601100
      9 C12         -1.6730     0.9630    -0.0950 c3         1 0SM      -0.156400
     10 C13         -0.3220     1.4110     0.4460 c3         1 0SM      -0.067400
     11 C14          0.7930     0.4240     0.1260 c3         1 0SM      -0.076400
     12 C15          2.1480     0.8770     0.6580 c3         1 0SM      -0.074400
     13 C16          3.3060     0.0110     0.1790 c3         1 0SM      -0.074400
     14 C17          4.6600     0.4740     0.7010 c3         1 0SM      -0.074400
     15 C18          5.8300    -0.2980     0.1040 c3         1 0SM      -0.074400
     16 C19          7.1890     0.1720     0.6090 c3         1 0SM      -0.074400
     17 C20          8.3550    -0.5560    -0.0470 c3         1 0SM      -0.074400
     18 C21          9.7190    -0.0840     0.4420 c3         1 0SM      -0.074400
     19 C22         10.8790    -0.7960    -0.2420 c3         1 0SM      -0.074400
     20 C23         12.2470    -0.3250     0.2360 c3         1 0SM      -0.074400
     21 C24         13.4010    -1.0320    -0.4620 c3         1 0SM      -0.074400
     22 C25         14.7730    -0.5640     0.0080 c3         1 0SM      -0.074400
     23 C26         15.9230    -1.2720    -0.6970 c3         1 0SM      -0.075400
     24 C27         17.2970    -0.8070    -0.2320 c3         1 0SM      -0.074400
     25 C28         18.4360    -1.5220    -0.9450 c3         1 0SM      -0.088100
     26 N           -8.7570    -2.6050     0.6950 n4         1 0SM      -0.487000
     27 O2          -6.1250     0.9420     2.0710 oh         1 0SM      -0.661000
     28 O11         -2.5080     3.2110    -0.0350 o          1 0SM      -0.624100
     29 O1P         -6.5600     0.4280    -3.3810 o          1 0SM      -0.803000
     30 O2P         -8.7440     0.6390    -1.9860 o          1 0SM      -0.803000
     31 O3P         -6.4430     0.6820    -0.8320 os         1 0SM      -0.608400
     32 NBQ         -3.9900     1.5320     0.2660 ns         1 0SM      -0.486900
     33 O4P         -7.2160    -1.4200    -1.7310 os         1 0SM      -0.590400
     34 CBV         -5.1750     2.3490     0.3840 c3         1 0SM       0.111700
     35 P           -7.3240     0.1760    -2.1200 p5         1 0SM       1.378800
     36 CBU         -5.7750     2.2800     1.7900 c3         1 0SM       0.163300
     37 H11C        -5.6930     2.4110    -1.6820 h1         1 0SM       0.041200
     38 H12C        -7.0600     2.6520    -0.5920 h1         1 0SM       0.041200
     39 HBV         -4.8680     3.3870     0.2390 h1         1 0SM       0.081700
     40 H31C        -4.5130     3.8520     2.5890 hc         1 0SM       0.043367
     41 H32C        -5.2930     2.8610     3.8160 hc         1 0SM       0.043367
     42 H33C        -3.9190     2.2190     2.9130 hc         1 0SM       0.043367
     43 HBU         -6.6700     2.9210     1.7750 h1         1 0SM       0.032700
     44 H41C        -8.2240    -2.9300    -2.6980 h1         1 0SM       0.061700
     45 H42C        -9.2590    -1.7200    -1.9670 h1         1 0SM       0.061700
     46 H51C        -9.2440    -3.9140    -0.8650 hx         1 0SM       0.078200
     47 H52C        -7.5220    -3.7910    -0.5190 hx         1 0SM       0.078200
     48 H61C       -10.7350    -2.1210     0.1320 hx         1 0SM       0.094922
     49 H62C       -10.1510    -1.3240     1.6080 hx         1 0SM       0.094922
     50 H63C        -9.5820    -0.7670     0.0240 hx         1 0SM       0.094922
     51 H71C        -8.3620    -4.4600     1.6340 hx         1 0SM       0.094922
     52 H72C        -9.3340    -3.3270     2.5960 hx         1 0SM       0.094922
     53 H73C       -10.0690    -4.1810     1.2230 hx         1 0SM       0.094922
     54 H81C        -7.2900    -1.0570     0.7180 hx         1 0SM       0.094922
     55 H82C        -7.8260    -1.6260     2.3050 hx         1 0SM       0.094922
     56 H83C        -6.7430    -2.6340     1.3240 hx         1 0SM       0.094922
     57 H121        -1.9810     0.0260     0.3760 hc         1 0SM       0.057700
     58 H122        -1.5840     0.7490    -1.1660 hc         1 0SM       0.057700
     59 HBQ         -4.1110     0.5340     0.3350 hn         1 0SM       0.327500
     60 H131        -0.0650     2.3850     0.0240 hc         1 0SM       0.052200
     61 H132        -0.3900     1.5520     1.5290 hc         1 0SM       0.052200
     62 H141         0.5490    -0.5650     0.5290 hc         1 0SM       0.035700
     63 H142         0.8580     0.3010    -0.9610 hc         1 0SM       0.035700
     64 H151         2.3260     1.9120     0.3470 hc         1 0SM       0.038700
     65 H152         2.1250     0.8910     1.7530 hc         1 0SM       0.038700
     66 H161         3.1380    -1.0310     0.4710 hc         1 0SM       0.036700
     67 H162         3.3230     0.0180    -0.9170 hc         1 0SM       0.036700
     68 H171         4.7850     1.5410     0.4800 hc         1 0SM       0.037200
     69 H172         4.6820     0.3890     1.7930 hc         1 0SM       0.037200
     70 H181         5.7120    -1.3660     0.3160 hc         1 0SM       0.036700
     71 H182         5.8000    -0.2030    -0.9870 hc         1 0SM       0.036700
     72 H191         7.2880     1.2480     0.4310 hc         1 0SM       0.037200
     73 H192         7.2410     0.0400     1.6960 hc         1 0SM       0.037200
     74 H201         8.2590    -1.6330     0.1290 hc         1 0SM       0.037200
     75 H202         8.2950    -0.4220    -1.1330 hc         1 0SM       0.037200
     76 H211         9.8090     0.9960     0.2780 hc         1 0SM       0.037200
     77 H212         9.7890    -0.2310     1.5250 hc         1 0SM       0.037200
     78 H221        10.7890    -1.8750    -0.0780 hc         1 0SM       0.037200
     79 H222        10.8040    -0.6490    -1.3250 hc         1 0SM       0.037200
     80 H231        12.3340     0.7560     0.0780 hc         1 0SM       0.037200
     81 H232        12.3270    -0.4790     1.3180 hc         1 0SM       0.037200
     82 H241        13.3130    -2.1130    -0.3040 hc         1 0SM       0.036700
     83 H242        13.3180    -0.8790    -1.5440 hc         1 0SM       0.036700
     84 H251        14.8610     0.5170    -0.1490 hc         1 0SM       0.036700
     85 H252        14.8590    -0.7200     1.0890 hc         1 0SM       0.036700
     86 H261        15.8340    -2.3530    -0.5400 hc         1 0SM       0.036700
     87 H262        15.8350    -1.1180    -1.7780 hc         1 0SM       0.036700
     88 H271        17.3850     0.2730    -0.3890 hc         1 0SM       0.036700
     89 H272        17.3840    -0.9620     0.8480 hc         1 0SM       0.036700
     90 H281        18.3910    -2.6000    -0.7770 hc         1 0SM       0.031367
     91 H282        18.3920    -1.3570    -2.0230 hc         1 0SM       0.031367
     92 H283        19.4100    -1.1740    -0.5970 hc         1 0SM       0.031367
     93 H2          -6.4600     0.9050     2.9720 ho         1 0SM       0.422000
@<TRIPOS>BOND
     1     1    31 1   
     2     1    34 1   
     3     1    37 1   
     4     1    38 1   
     5     2    36 1   
     6     2    40 1   
     7     2    41 1   
     8     2    42 1   
     9     3     4 1   
    10     3    33 1   
    11     3    44 1   
    12     3    45 1   
    13     4    26 1   
    14     4    46 1   
    15     4    47 1   
    16     5    26 1   
    17     5    48 1   
    18     5    49 1   
    19     5    50 1   
    20     6    26 1   
    21     6    51 1   
    22     6    52 1   
    23     6    53 1   
    24     7    26 1   
    25     7    54 1   
    26     7    55 1   
    27     7    56 1   
    28     8     9 1   
    29     8    28 2   
    30     8    32 1   
    31     9    10 1   
    32     9    57 1   
    33     9    58 1   
    34    10    11 1   
    35    10    60 1   
    36    10    61 1   
    37    11    12 1   
    38    11    62 1   
    39    11    63 1   
    40    12    13 1   
    41    12    64 1   
    42    12    65 1   
    43    13    14 1   
    44    13    66 1   
    45    13    67 1   
    46    14    15 1   
    47    14    68 1   
    48    14    69 1   
    49    15    16 1   
    50    15    70 1   
    51    15    71 1   
    52    16    17 1   
    53    16    72 1   
    54    16    73 1   
    55    17    18 1   
    56    17    74 1   
    57    17    75 1   
    58    18    19 1   
    59    18    76 1   
    60    18    77 1   
    61    19    20 1   
    62    19    78 1   
    63    19    79 1   
    64    20    21 1   
    65    20    80 1   
    66    20    81 1   
    67    21    22 1   
    68    21    82 1   
    69    21    83 1   
    70    22    23 1   
    71    22    84 1   
    72    22    85 1   
    73    23    24 1   
    74    23    86 1   
    75    23    87 1   
    76    24    25 1   
    77    24    88 1   
    78    24    89 1   
    79    25    90 1   
    80    25    91 1   
    81    25    92 1   
    82    27    36 1   
    83    27    93 1   
    84    29    35 1   
    85    30    35 1   
    86    31    35 1   
    87    32    34 1   
    88    32    59 1   
    89    33    35 1   
    90    34    36 1   
    91    34    39 1   
    92    36    43 1   
@<TRIPOS>SUBSTRUCTURE
     1 0SM         1 TEMP              0 ****  ****    0 ROOT
