@<TRIPOS>MOLECULE
0SN
   60    62     1     0     0
SMALL
abcg2


@<TRIPOS>ATOM
      1 C23         -5.4160    -0.3480    -1.1670 ca         1 0SN      -0.115000
      2 C27         -5.8500    -0.8240     1.1290 ca         1 0SN      -0.115000
      3 C24         -6.6440     0.2860    -1.2670 ca         1 0SN      -0.108000
      4 C26         -7.0850    -0.1950     1.0250 ca         1 0SN      -0.108000
      5 C5           9.6360    -1.7780    -0.2460 ca         1 0SN      -0.027000
      6 C6           8.2730    -1.9490    -0.1540 ca         1 0SN      -0.169000
      7 C8           7.9120     0.4330     0.1060 ca         1 0SN      -0.102000
      8 C22         -4.9950    -0.9150     0.0360 ca         1 0SN      -0.144300
      9 C25         -7.5060     0.3750    -0.1730 ca         1 0SN       0.003700
     10 C4          10.1670    -0.4910    -0.1640 ca         1 0SN       0.059400
     11 C7           7.4000    -0.8570     0.0200 ca         1 0SN      -0.002000
     12 C9           9.2900     0.5860     0.0110 ca         1 0SN      -0.148000
     13 C2          11.6770     1.1080    -0.1290 cc         1 0SN       0.390200
     14 C12          4.9710    -0.3310     0.1740 c          1 0SN       0.610100
     15 C17          0.0230    -0.2770     0.2510 c          1 0SN       0.596100
     16 C30        -10.1230    -1.1450     0.0330 c          1 0SN       0.740500
     17 C33        -11.2670     0.7270    -1.1410 c          1 0SN       0.740500
     18 C1          12.9960     1.7920    -0.1700 c3         1 0SN      -0.114400
     19 C21         -3.6450    -1.5690     0.1450 c3         1 0SN      -0.010100
     20 C28         -8.8550     1.0230    -0.3090 c3         1 0SN      -0.006100
     21 C14          3.6440    -1.0580     0.2090 c3         1 0SN      -0.181400
     22 C19         -1.1490    -1.2380     0.2620 c3         1 0SN      -0.153400
     23 C20         -2.5030    -0.5530     0.1710 c3         1 0SN      -0.067400
     24 C15          2.4650    -0.1040     0.2720 c3         1 0SN       0.122000
     25 C29         -9.8950     0.0650    -0.8910 c3         1 0SN      -0.306700
     26 N3          11.5000    -0.1600    -0.2390 nd         1 0SN      -0.531100
     27 N11          6.0400    -1.1660     0.1000 ns         1 0SN      -0.152000
     28 N16          1.2320    -0.8630     0.2810 ns         1 0SN      -0.533900
     29 O13          5.0590     0.8820     0.2070 o          1 0SN      -0.564100
     30 O18         -0.1100     0.9390     0.2150 o          1 0SN      -0.590100
     31 O31        -10.4450    -0.8760     1.2110 o          1 0SN      -0.769750
     32 O34        -11.4130     1.9280    -0.8400 o          1 0SN      -0.769750
     33 O32         -9.9880    -2.2890    -0.4460 o          1 0SN      -0.769750
     34 O35        -12.1420    -0.0160    -1.6350 o          1 0SN      -0.769750
     35 S10         10.2110     2.0490     0.0830 ss         1 0SN       0.012800
     36 H23         -4.7710    -0.4020    -2.0380 ha         1 0SN       0.076500
     37 H24         -6.9450     0.7170    -2.2160 ha         1 0SN       0.122000
     38 H27         -5.5500    -1.2530     2.0790 ha         1 0SN       0.076500
     39 H26         -7.7400    -0.1560     1.8880 ha         1 0SN       0.122000
     40 H8           7.2710     1.2890     0.2400 ha         1 0SN       0.163000
     41 H211        -3.6060    -2.1850     1.0480 hc         1 0SN       0.025200
     42 H212        -3.4960    -2.2510    -0.6990 hc         1 0SN       0.025200
     43 H281        -9.1980     1.3790     0.6630 hc         1 0SN       0.041200
     44 H282        -8.7730     1.9010    -0.9540 hc         1 0SN       0.041200
     45 H11          5.8290    -2.1520     0.0690 hn         1 0SN       0.150000
     46 H11C        13.0490     2.4890    -1.0070 hc         1 0SN       0.057700
     47 H12C        13.1680     2.3620     0.7430 hc         1 0SN       0.057700
     48 H13C        13.7890     1.0560    -0.2780 hc         1 0SN       0.057700
     49 H141         3.5700    -1.6950    -0.6790 hc         1 0SN       0.062700
     50 H142         3.6340    -1.7340     1.0700 hc         1 0SN       0.062700
     51 H191        -1.0290    -1.9430    -0.5680 hc         1 0SN       0.048200
     52 H192        -1.0940    -1.8450     1.1720 hc         1 0SN       0.048200
     53 H16          1.2830    -1.8670     0.3240 hn         1 0SN       0.304500
     54 H29         -9.5270    -0.3000    -1.8570 hc         1 0SN       0.018700
     55 H201        -2.5480     0.0630    -0.7300 hc         1 0SN       0.059200
     56 H202        -2.6400     0.1250     1.0170 hc         1 0SN       0.059200
     57 H151         2.5330     0.5200     1.1650 h1         1 0SN       0.066200
     58 H152         2.4800     0.5670    -0.5900 h1         1 0SN       0.066200
     59 H5          10.2890    -2.6300    -0.3830 ha         1 0SN       0.129000
     60 H6           7.8610    -2.9490    -0.2220 ha         1 0SN       0.113000
@<TRIPOS>BOND
     1     1     3 ar  
     2     1     8 ar  
     3     1    36 1   
     4     2     4 ar  
     5     2     8 ar  
     6     2    38 1   
     7     3     9 ar  
     8     3    37 1   
     9     4     9 ar  
    10     4    39 1   
    11     5     6 ar  
    12     5    10 ar  
    13     5    59 1   
    14     6    11 ar  
    15     6    60 1   
    16     7    11 ar  
    17     7    12 ar  
    18     7    40 1   
    19     8    19 1   
    20     9    20 1   
    21    10    12 ar  
    22    10    26 1   
    23    11    27 1   
    24    12    35 1   
    25    13    18 1   
    26    13    26 2   
    27    13    35 1   
    28    14    21 1   
    29    14    27 1   
    30    14    29 2   
    31    15    22 1   
    32    15    28 1   
    33    15    30 2   
    34    16    25 1   
    35    16    31 1   
    36    16    33 1   
    37    17    25 1   
    38    17    32 1   
    39    17    34 1   
    40    18    46 1   
    41    18    47 1   
    42    18    48 1   
    43    19    23 1   
    44    19    41 1   
    45    19    42 1   
    46    20    25 1   
    47    20    43 1   
    48    20    44 1   
    49    21    24 1   
    50    21    49 1   
    51    21    50 1   
    52    22    23 1   
    53    22    51 1   
    54    22    52 1   
    55    23    55 1   
    56    23    56 1   
    57    24    28 1   
    58    24    57 1   
    59    24    58 1   
    60    25    54 1   
    61    27    45 1   
    62    28    53 1   
@<TRIPOS>SUBSTRUCTURE
     1 0SN         1 TEMP              0 ****  ****    0 ROOT
