@<TRIPOS>MOLECULE
0SN
   60    62     1     0     0
SMALL
No Charge or Current Charge


@<TRIPOS>ATOM
      1 C23         -5.1190    -0.8760    -1.1140 ca         1 0SN      -0.115000
      2 C27         -5.6560    -0.6830     1.2480 ca         1 0SN      -0.115000
      3 C24         -6.2390    -0.0880    -1.4320 ca         1 0SN      -0.108000
      4 C26         -6.7760     0.1050     0.9290 ca         1 0SN      -0.108000
      5 C5           9.1630    -1.3560    -1.1620 ca         1 0SN      -0.027000
      6 C6           7.8270    -1.6280    -0.8030 ca         1 0SN      -0.169000
      7 C8           7.6730     0.5310     0.3150 ca         1 0SN      -0.102000
      8 C22         -4.8220    -1.1780     0.2280 ca         1 0SN      -0.144300
      9 C25         -7.0750     0.4080    -0.4140 ca         1 0SN       0.003700
     10 C4           9.7460    -0.1390    -0.7770 ca         1 0SN       0.059400
     11 C7           7.0700    -0.6920    -0.0620 ca         1 0SN      -0.002000
     12 C9           9.0050     0.7750    -0.0560 ca         1 0SN      -0.148000
     13 C2          11.2570     1.4420    -0.5570 cc         1 0SN       0.390200
     14 C12          4.7450    -0.3920     0.9920 c          1 0SN       0.610100
     15 C17          0.1540    -1.1190     1.2870 c          1 0SN       0.596100
     16 C30        -10.0960    -0.4830    -0.2430 c          1 0SN       0.740500
     17 C33        -10.6090     1.3030    -1.8420 c          1 0SN       0.740500
     18 C1          12.5690     2.1580    -0.6960 c3         1 0SN      -0.114400
     19 C21         -3.6060    -2.0270     0.5730 c3         1 0SN      -0.010100
     20 C28         -8.2850     1.2690    -0.7630 c3         1 0SN      -0.006100
     21 C14          3.4190    -1.1510     1.0790 c3         1 0SN      -0.181400
     22 C19         -1.0830    -2.0070     1.1120 c3         1 0SN      -0.153400
     23 C20         -2.3370    -1.1700     0.7640 c3         1 0SN      -0.067400
     24 C15          2.3410    -0.4610     0.2230 c3         1 0SN       0.122000
     25 C29         -9.4850     0.4370    -1.2910 c3         1 0SN      -0.306700
     26 N3          11.0520     0.2250    -1.0810 nd         1 0SN      -0.531100
     27 N11          5.7290    -1.0400     0.2580 ns         1 0SN      -0.152000
     28 N16          1.0710    -1.1900     0.2610 ns         1 0SN      -0.533900
     29 O13          4.9010     0.6820     1.5610 o          1 0SN      -0.564100
     30 O18          0.3290    -0.4200     2.2740 o          1 0SN      -0.590100
     31 O31        -10.4360    -0.0290     0.8390 o          1 0SN      -0.769750
     32 O34        -11.0620     2.2110    -1.1610 o          1 0SN      -0.769750
     33 O32        -10.1770    -1.6730    -0.5110 o          1 0SN      -0.769750
     34 O35        -10.9610     1.1080    -2.9960 o          1 0SN      -0.769750
     35 S10          9.9200     2.2260     0.3170 ss         1 0SN       0.012800
     36 H23         -4.4820    -1.2490    -1.9120 ha         1 0SN       0.076500
     37 H24         -6.4580     0.1390    -2.4730 ha         1 0SN       0.122000
     38 H27         -5.4370    -0.9060     2.2890 ha         1 0SN       0.076500
     39 H26         -7.4130     0.4800     1.7260 ha         1 0SN       0.122000
     40 H8           7.1370     1.2890     0.8790 ha         1 0SN       0.163000
     41 H211        -3.7940    -2.6000     1.4900 hc         1 0SN       0.025200
     42 H212        -3.4260    -2.7660    -0.2180 hc         1 0SN       0.025200
     43 H281        -8.5950     1.8640     0.1050 hc         1 0SN       0.041200
     44 H282        -7.9960     1.9940    -1.5340 hc         1 0SN       0.041200
     45 H11          5.4370    -1.9290    -0.1280 hn         1 0SN       0.150000
     46 H11C        12.5280     2.8790    -1.5200 hc         1 0SN       0.057700
     47 H12C        12.8140     2.7040     0.2230 hc         1 0SN       0.057700
     48 H13C        13.3850     1.4550    -0.8980 hc         1 0SN       0.057700
     49 H141         3.5460    -2.1800     0.7200 hc         1 0SN       0.062700
     50 H142         3.0860    -1.1590     2.1230 hc         1 0SN       0.062700
     51 H191        -0.9140    -2.7300     0.3050 hc         1 0SN       0.048200
     52 H192        -1.2710    -2.5380     2.0530 hc         1 0SN       0.048200
     53 H16          0.8390    -1.7990    -0.5150 hn         1 0SN       0.304500
     54 H29         -9.1420    -0.1990    -2.1180 hc         1 0SN       0.018700
     55 H201        -2.1480    -0.6010    -0.1560 hc         1 0SN       0.059200
     56 H202        -2.5170    -0.4370     1.5600 hc         1 0SN       0.059200
     57 H151         2.1800     0.5650     0.5810 h1         1 0SN       0.066200
     58 H152         2.6790    -0.4040    -0.8210 h1         1 0SN       0.066200
     59 H5           9.7380    -2.0820    -1.7310 ha         1 0SN       0.129000
     60 H6           7.3790    -2.5720    -1.1030 ha         1 0SN       0.113000
@<TRIPOS>BOND
     1     1     3 ar  
     2     1     8 ar  
     3     1    36 1   
     4     2     4 ar  
     5     2     8 ar  
     6     2    38 1   
     7     3     9 ar  
     8     3    37 1   
     9     4     9 ar  
    10     4    39 1   
    11     5     6 ar  
    12     5    10 ar  
    13     5    59 1   
    14     6    11 ar  
    15     6    60 1   
    16     7    11 ar  
    17     7    12 ar  
    18     7    40 1   
    19     8    19 1   
    20     9    20 1   
    21    10    12 ar  
    22    10    26 1   
    23    11    27 1   
    24    12    35 1   
    25    13    18 1   
    26    13    26 2   
    27    13    35 1   
    28    14    21 1   
    29    14    27 1   
    30    14    29 2   
    31    15    22 1   
    32    15    28 1   
    33    15    30 2   
    34    16    25 1   
    35    16    31 1   
    36    16    33 1   
    37    17    25 1   
    38    17    32 1   
    39    17    34 1   
    40    18    46 1   
    41    18    47 1   
    42    18    48 1   
    43    19    23 1   
    44    19    41 1   
    45    19    42 1   
    46    20    25 1   
    47    20    43 1   
    48    20    44 1   
    49    21    24 1   
    50    21    49 1   
    51    21    50 1   
    52    22    23 1   
    53    22    51 1   
    54    22    52 1   
    55    23    55 1   
    56    23    56 1   
    57    24    28 1   
    58    24    57 1   
    59    24    58 1   
    60    25    54 1   
    61    27    45 1   
    62    28    53 1   
@<TRIPOS>SUBSTRUCTURE
     1 0SN         1 TEMP              0 ****  ****    0 ROOT
