@<TRIPOS>MOLECULE
0SO
   66    67     1     0     0
SMALL
bcc


@<TRIPOS>ATOM
      1 O27         -7.0120    -1.1800     0.5000 o          1 0SO      -0.597000
      2 C25         -6.6600    -0.1440    -0.0300 c          1 0SO       0.767100
      3 O26         -7.4350     0.9180    -0.2530 os         1 0SO      -0.458900
      4 C28         -8.8370     0.9600     0.1200 c3         1 0SO       0.202800
      5 C31         -9.2700     2.3510    -0.3260 c3         1 0SO      -0.109100
      6 C30         -9.6370    -0.0920    -0.6390 c3         1 0SO      -0.109100
      7 C29         -9.0070     0.8270     1.6290 c3         1 0SO      -0.109100
      8 N24         -5.4070     0.0990    -0.4640 ns         1 0SO      -0.575900
      9 C23         -4.3610    -0.8970    -0.4430 c3         1 0SO       0.120000
     10 C22         -2.9990    -0.2340    -0.2990 c3         1 0SO      -0.115400
     11 C21         -1.8850    -1.2690    -0.2970 c3         1 0SO       0.116000
     12 N19         -0.6040    -0.6180    -0.1330 ns         1 0SO      -0.585900
     13 C18          0.5550    -1.2890    -0.3110 c          1 0SO       0.798100
     14 O20          0.6170    -2.4340    -0.7280 o          1 0SO      -0.606100
     15 N17          1.6770    -0.5510     0.0030 ns         1 0SO      -0.489100
     16 C11          2.9640    -1.0380    -0.0470 cc         1 0SO       0.083300
     17 C12          3.4850    -2.3110    -0.0980 cd         1 0SO      -0.318300
     18 C10          4.8850    -2.1230    -0.0450 cd         1 0SO       0.346600
     19 C13          5.9360    -3.2020    -0.0670 c3         1 0SO      -0.072300
     20 C16          7.3410    -2.6050    -0.0240 c3         1 0SO      -0.079433
     21 C15          5.7360    -4.1130     1.1510 c3         1 0SO      -0.079433
     22 C14          5.7710    -4.0320    -1.3460 c3         1 0SO      -0.079433
     23 N9           5.1940    -0.8490     0.0330 nc         1 0SO      -0.511800
     24 N8           4.0200    -0.1880     0.0150 na         1 0SO       0.122300
     25 C4           4.0010     1.2200     0.1000 ca         1 0SO       0.006800
     26 C2           4.6790     1.8560     1.1350 ca         1 0SO      -0.123500
     27 C6           3.3230     1.9730    -0.8500 ca         1 0SO      -0.123500
     28 C5           3.3050     3.3570    -0.7460 ca         1 0SO      -0.123500
     29 C3           3.9720     4.0130     0.2840 ca         1 0SO      -0.072300
     30 C7           3.9320     5.5070     0.4100 c3         1 0SO      -0.048800
     31 C1           4.6670     3.2380     1.2140 ca         1 0SO      -0.123500
     32 H1          -8.7120     3.1310     0.1950 hc         1 0SO       0.049367
     33 H2          -9.1300     2.4830    -1.4000 hc         1 0SO       0.049367
     34 H3         -10.3280     2.4950    -0.1080 hc         1 0SO       0.049367
     35 H4         -10.7000     0.0610    -0.4510 hc         1 0SO       0.049367
     36 H5          -9.4780    -0.0020    -1.7150 hc         1 0SO       0.049367
     37 H6          -9.3880    -1.1050    -0.3330 hc         1 0SO       0.049367
     38 H7          -8.3730     1.5410     2.1570 hc         1 0SO       0.049367
     39 H8         -10.0420     1.0480     1.8950 hc         1 0SO       0.049367
     40 H9          -8.7790    -0.1740     1.9880 hc         1 0SO       0.049367
     41 H10         -4.5330    -1.5690     0.3970 h1         1 0SO       0.057200
     42 H11         -2.8370     0.4710    -1.1190 hc         1 0SO       0.050200
     43 H12         -2.9770     0.3410     0.6310 hc         1 0SO       0.050200
     44 H13         -2.0590    -2.0000     0.5000 h1         1 0SO       0.057200
     45 H14         -1.8900    -1.8170    -1.2400 h1         1 0SO       0.057200
     46 H15         -0.5940     0.2430     0.3920 hn         1 0SO       0.306500
     47 H16          1.5570     0.4070     0.2990 hn         1 0SO       0.323500
     48 H17          2.9420    -3.2370    -0.1510 ha         1 0SO       0.186000
     49 H18          7.5080    -2.0330     0.8890 hc         1 0SO       0.036367
     50 H19          8.0820    -3.4050    -0.0580 hc         1 0SO       0.036367
     51 H20          7.5250    -1.9410    -0.8700 hc         1 0SO       0.036367
     52 H21          4.7500    -4.5820     1.1430 hc         1 0SO       0.036367
     53 H22          6.4810    -4.9110     1.1580 hc         1 0SO       0.036367
     54 H23          5.8310    -3.5540     2.0830 hc         1 0SO       0.036367
     55 H24          5.8880    -3.4140    -2.2380 hc         1 0SO       0.036367
     56 H25          6.5200    -4.8250    -1.3850 hc         1 0SO       0.036367
     57 H26          4.7880    -4.5040    -1.3940 hc         1 0SO       0.036367
     58 H27          5.2110     1.2700     1.8720 ha         1 0SO       0.151000
     59 H28          2.8260     1.4880    -1.6810 ha         1 0SO       0.151000
     60 H29          2.7740     3.9320    -1.4940 ha         1 0SO       0.135000
     61 H30          3.2350     5.8110     1.1930 hc         1 0SO       0.045033
     62 H31          4.9090     5.9120     0.6750 hc         1 0SO       0.045033
     63 H32          3.6100     5.9790    -0.5170 hc         1 0SO       0.045033
     64 H33          5.1990     3.7240     2.0240 ha         1 0SO       0.135000
     65 H34         -5.2400     0.9410    -0.9930 hn         1 0SO       0.321500
     66 H35         -4.3820    -1.5090    -1.3510 h1         1 0SO       0.057200
@<TRIPOS>BOND
     1     1     2 2   
     2     2     3 1   
     3     2     8 1   
     4     3     4 1   
     5     4     5 1   
     6     4     6 1   
     7     4     7 1   
     8     5    32 1   
     9     5    33 1   
    10     5    34 1   
    11     6    35 1   
    12     6    36 1   
    13     6    37 1   
    14     7    38 1   
    15     7    39 1   
    16     7    40 1   
    17     8     9 1   
    18     8    65 1   
    19     9    10 1   
    20     9    41 1   
    21     9    66 1   
    22    10    11 1   
    23    10    42 1   
    24    10    43 1   
    25    11    12 1   
    26    11    44 1   
    27    11    45 1   
    28    12    13 1   
    29    12    46 1   
    30    13    14 2   
    31    13    15 1   
    32    15    16 1   
    33    15    47 1   
    34    16    17 2   
    35    16    24 1   
    36    17    18 1   
    37    17    48 1   
    38    18    19 1   
    39    18    23 2   
    40    19    20 1   
    41    19    21 1   
    42    19    22 1   
    43    20    49 1   
    44    20    50 1   
    45    20    51 1   
    46    21    52 1   
    47    21    53 1   
    48    21    54 1   
    49    22    55 1   
    50    22    56 1   
    51    22    57 1   
    52    23    24 1   
    53    24    25 1   
    54    25    26 ar  
    55    25    27 ar  
    56    26    31 ar  
    57    26    58 1   
    58    27    28 ar  
    59    27    59 1   
    60    28    29 ar  
    61    28    60 1   
    62    29    30 1   
    63    29    31 ar  
    64    30    61 1   
    65    30    62 1   
    66    30    63 1   
    67    31    64 1   
@<TRIPOS>SUBSTRUCTURE
     1 0SO         1 TEMP              0 ****  ****    0 ROOT
