@<TRIPOS>MOLECULE
0SO
   66    67     1     0     0
SMALL
No Charge or Current Charge


@<TRIPOS>ATOM
      1 O27         -6.0290    -0.4480     0.8730 o          1 0SO      -0.548000
      2 C25         -6.3080    -0.1160    -0.2670 c          1 0SO       0.651100
      3 O26         -7.2900     0.7500    -0.6620 os         1 0SO      -0.482100
      4 C28         -8.1570     1.4260     0.2790 c3         1 0SO       0.226000
      5 C31         -9.0850     2.2870    -0.6070 c3         1 0SO      -0.109100
      6 C30         -8.9940     0.3820     1.0620 c3         1 0SO      -0.109100
      7 C29         -7.3110     2.3410     1.2020 c3         1 0SO      -0.109100
      8 N24         -5.6780    -0.5770    -1.3860 ns         1 0SO      -0.508900
      9 C23         -4.5490    -1.5080    -1.3890 c3         1 0SO       0.120000
     10 C22         -3.2250    -0.8150    -1.0130 c3         1 0SO      -0.115400
     11 C21         -2.0270    -1.7810    -1.0280 c3         1 0SO       0.116000
     12 N19         -0.7830    -1.1000    -0.6720 ns         1 0SO      -0.518900
     13 C18          0.4410    -1.7140    -0.6370 c          1 0SO       0.664100
     14 O20          0.5950    -2.8940    -0.9040 o          1 0SO      -0.606100
     15 N17          1.4500    -0.8550    -0.2740 ns         1 0SO      -0.422100
     16 C11          2.8110    -1.1160    -0.1280 cc         1 0SO       0.032600
     17 C12          3.4860    -2.2930    -0.2730 cd         1 0SO      -0.235000
     18 C10          4.8570    -2.0450     0.0020 cd         1 0SO       0.281300
     19 C13          5.9740    -3.0900    -0.0430 c3         1 0SO      -0.072300
     20 C16          7.3650    -2.4880     0.3130 c3         1 0SO      -0.079433
     21 C15          5.6520    -4.2190     0.9710 c3         1 0SO      -0.079433
     22 C14          6.0480    -3.6890    -1.4720 c3         1 0SO      -0.079433
     23 N9           5.0870    -0.7750     0.3120 nc         1 0SO      -0.511800
     24 N8           3.8240    -0.2370     0.2310 na         1 0SO       0.173000
     25 C4           3.6310     1.1290     0.4480 ca         1 0SO       0.006800
     26 C2           3.9930     1.7120     1.6780 ca         1 0SO      -0.105500
     27 C6           3.0690     1.9390    -0.5600 ca         1 0SO      -0.105500
     28 C5           2.8680     3.3120    -0.3370 ca         1 0SO      -0.105500
     29 C3           3.2280     3.8930     0.8940 ca         1 0SO      -0.072300
     30 C7           3.0070     5.3780     1.1360 c3         1 0SO      -0.048800
     31 C1           3.7910     3.0860     1.9000 ca         1 0SO      -0.105500
     32 H1          -8.5030     3.0020    -1.2010 hc         1 0SO       0.049367
     33 H2          -9.6590     1.6570    -1.2970 hc         1 0SO       0.049367
     34 H3          -9.7950     2.8530     0.0060 hc         1 0SO       0.049367
     35 H4          -9.8070     0.8760     1.6080 hc         1 0SO       0.049367
     36 H5          -9.4420    -0.3490     0.3780 hc         1 0SO       0.049367
     37 H6          -8.3910    -0.1580     1.8000 hc         1 0SO       0.049367
     38 H7          -6.6120     2.9480     0.6140 hc         1 0SO       0.049367
     39 H8          -7.9610     3.0230     1.7630 hc         1 0SO       0.049367
     40 H9          -6.7370     1.7660     1.9360 hc         1 0SO       0.049367
     41 H10         -4.7560    -2.3220    -0.6800 h1         1 0SO       0.057200
     42 H11         -3.0370     0.0050    -1.7160 hc         1 0SO       0.050200
     43 H12         -3.3160    -0.3720    -0.0140 hc         1 0SO       0.050200
     44 H13         -2.2020    -2.5970    -0.3140 h1         1 0SO       0.057200
     45 H14         -1.9180    -2.2180    -2.0310 h1         1 0SO       0.057200
     46 H15         -0.8240    -0.1170    -0.4350 hn         1 0SO       0.306500
     47 H16          1.1430     0.0900    -0.0890 hn         1 0SO       0.323500
     48 H17          3.0640    -3.2520    -0.5460 ha         1 0SO       0.168000
     49 H18          7.3640    -2.0640     1.3250 hc         1 0SO       0.036367
     50 H19          8.1470    -3.2560     0.2740 hc         1 0SO       0.036367
     51 H20          7.6430    -1.6930    -0.3900 hc         1 0SO       0.036367
     52 H21          4.7020    -4.7110     0.7290 hc         1 0SO       0.036367
     53 H22          6.4360    -4.9850     0.9700 hc         1 0SO       0.036367
     54 H23          5.5730    -3.8150     1.9880 hc         1 0SO       0.036367
     55 H24          6.2540    -2.9050    -2.2110 hc         1 0SO       0.036367
     56 H25          6.8440    -4.4410    -1.5440 hc         1 0SO       0.036367
     57 H26          5.1040    -4.1730    -1.7490 hc         1 0SO       0.036367
     58 H27          4.4280     1.0980     2.4640 ha         1 0SO       0.133000
     59 H28          2.7950     1.5050    -1.5200 ha         1 0SO       0.133000
     60 H29          2.4330     3.9260    -1.1230 ha         1 0SO       0.117000
     61 H30          2.0130     5.5600     1.5610 hc         1 0SO       0.045033
     62 H31          3.7500     5.7850     1.8320 hc         1 0SO       0.045033
     63 H32          3.0820     5.9510     0.2030 hc         1 0SO       0.045033
     64 H33          4.0720     3.5220     2.8560 ha         1 0SO       0.117000
     65 H34         -6.0240    -0.2170    -2.2660 hn         1 0SO       0.321500
     66 H35         -4.4620    -1.9480    -2.3910 h1         1 0SO       0.057200
@<TRIPOS>BOND
     1     1     2 2   
     2     2     3 1   
     3     2     8 1   
     4     3     4 1   
     5     4     5 1   
     6     4     6 1   
     7     4     7 1   
     8     5    32 1   
     9     5    33 1   
    10     5    34 1   
    11     6    35 1   
    12     6    36 1   
    13     6    37 1   
    14     7    38 1   
    15     7    39 1   
    16     7    40 1   
    17     8     9 1   
    18     8    65 1   
    19     9    10 1   
    20     9    41 1   
    21     9    66 1   
    22    10    11 1   
    23    10    42 1   
    24    10    43 1   
    25    11    12 1   
    26    11    44 1   
    27    11    45 1   
    28    12    13 1   
    29    12    46 1   
    30    13    14 2   
    31    13    15 1   
    32    15    16 1   
    33    15    47 1   
    34    16    17 2   
    35    16    24 1   
    36    17    18 1   
    37    17    48 1   
    38    18    19 1   
    39    18    23 2   
    40    19    20 1   
    41    19    21 1   
    42    19    22 1   
    43    20    49 1   
    44    20    50 1   
    45    20    51 1   
    46    21    52 1   
    47    21    53 1   
    48    21    54 1   
    49    22    55 1   
    50    22    56 1   
    51    22    57 1   
    52    23    24 1   
    53    24    25 1   
    54    25    26 ar  
    55    25    27 ar  
    56    26    31 ar  
    57    26    58 1   
    58    27    28 ar  
    59    27    59 1   
    60    28    29 ar  
    61    28    60 1   
    62    29    30 1   
    63    29    31 ar  
    64    30    61 1   
    65    30    62 1   
    66    30    63 1   
    67    31    64 1   
@<TRIPOS>SUBSTRUCTURE
     1 0SO         1 TEMP              0 ****  ****    0 ROOT
