@<TRIPOS>MOLECULE
0SQ
   40    41     1     0     0
SMALL
No Charge or Current Charge


@<TRIPOS>ATOM
      1 O14         -1.8560    -3.5740    -0.0870 o          1 0SQ      -0.609100
      2 C12         -0.6550    -3.3960    -0.1580 c          1 0SQ       0.665100
      3 N13          0.1950    -4.4300    -0.2570 nt         1 0SQ      -0.615000
      4 N11         -0.0290    -2.1760    -0.1450 ns         1 0SQ      -0.421100
      5 C1          -0.5940    -0.9060    -0.0580 cc         1 0SQ       0.033600
      6 C3          -1.9090    -0.5490     0.0040 cd         1 0SQ      -0.236000
      7 C5          -1.9730     0.8700     0.0610 cd         1 0SQ       0.282300
      8 C6          -3.2570     1.6970     0.1410 c3         1 0SQ      -0.072300
      9 C9          -4.1310     1.3960    -1.1050 c3         1 0SQ      -0.079433
     10 C8          -4.0360     1.3010     1.4220 c3         1 0SQ      -0.079433
     11 C7          -2.9750     3.2280     0.1870 c3         1 0SQ      -0.079433
     12 N4          -0.7700     1.4290     0.0410 nc         1 0SQ      -0.512800
     13 N2           0.0480     0.3260    -0.0390 na         1 0SQ       0.171000
     14 C10          1.4360     0.4830    -0.0380 ca         1 0SQ       0.009800
     15 C19          2.2210    -0.1190     0.9660 ca         1 0SQ      -0.106500
     16 C18          3.6190     0.0340     0.9610 ca         1 0SQ      -0.105000
     17 C17          4.2470     0.7930    -0.0440 ca         1 0SQ      -0.072300
     18 C20          5.7590     0.9560    -0.0510 c3         1 0SQ      -0.048800
     19 C15          3.4640     1.3970    -1.0460 ca         1 0SQ      -0.105000
     20 C16          2.0660     1.2440    -1.0420 ca         1 0SQ      -0.106500
     21 H1          -0.1810    -5.3660    -0.2730 hn         1 0SQ       0.317500
     22 H2           1.1900    -4.2800    -0.3160 hn         1 0SQ       0.317500
     23 H3           0.9790    -2.2280    -0.2120 hn         1 0SQ       0.323500
     24 H4          -2.7620    -1.2150     0.0060 ha         1 0SQ       0.170000
     25 H5          -4.4020     0.3340    -1.1530 hc         1 0SQ       0.036367
     26 H6          -5.0610     1.9780    -1.0850 hc         1 0SQ       0.036367
     27 H7          -3.5920     1.6480    -2.0270 hc         1 0SQ       0.036367
     28 H8          -3.4300     1.4850     2.3180 hc         1 0SQ       0.036367
     29 H9          -4.9630     1.8800     1.5150 hc         1 0SQ       0.036367
     30 H10         -4.3050     0.2370     1.4110 hc         1 0SQ       0.036367
     31 H11         -2.4370     3.5580    -0.7100 hc         1 0SQ       0.036367
     32 H12         -3.9110     3.7980     0.2430 hc         1 0SQ       0.036367
     33 H13         -2.3710     3.4910     1.0650 hc         1 0SQ       0.036367
     34 H14          1.7480    -0.7010     1.7540 ha         1 0SQ       0.131500
     35 H15          4.2140    -0.4370     1.7410 ha         1 0SQ       0.117500
     36 H16          6.2350     0.1540    -0.6270 hc         1 0SQ       0.045367
     37 H17          6.0570     1.9130    -0.4970 hc         1 0SQ       0.045367
     38 H18          6.1690     0.9270     0.9660 hc         1 0SQ       0.045367
     39 H19          3.9370     1.9850    -1.8290 ha         1 0SQ       0.117500
     40 H20          1.4700     1.7150    -1.8210 ha         1 0SQ       0.131500
@<TRIPOS>BOND
     1     1     2 2   
     2     2     3 1   
     3     2     4 1   
     4     3    21 1   
     5     3    22 1   
     6     4     5 1   
     7     4    23 1   
     8     5     6 2   
     9     5    13 1   
    10     6     7 1   
    11     6    24 1   
    12     7     8 1   
    13     7    12 2   
    14     8     9 1   
    15     8    10 1   
    16     8    11 1   
    17     9    25 1   
    18     9    26 1   
    19     9    27 1   
    20    10    28 1   
    21    10    29 1   
    22    10    30 1   
    23    11    31 1   
    24    11    32 1   
    25    11    33 1   
    26    12    13 1   
    27    13    14 1   
    28    14    15 ar  
    29    14    20 ar  
    30    15    16 ar  
    31    15    34 1   
    32    16    17 ar  
    33    16    35 1   
    34    17    18 1   
    35    17    19 ar  
    36    18    36 1   
    37    18    37 1   
    38    18    38 1   
    39    19    20 ar  
    40    19    39 1   
    41    20    40 1   
@<TRIPOS>SUBSTRUCTURE
     1 0SQ         1 TEMP              0 ****  ****    0 ROOT
