@<TRIPOS>MOLECULE
0SQ
   40    41     1     0     0
SMALL
bcc


@<TRIPOS>ATOM
      1 O14         -1.7900    -3.5220     0.1550 o          1 0SQ      -0.609100
      2 C12         -0.5970    -3.3810    -0.0560 c          1 0SQ       0.799100
      3 N13          0.2540    -4.4080    -0.2650 nt         1 0SQ      -0.682000
      4 N11          0.0020    -2.1420    -0.1300 ns         1 0SQ      -0.488100
      5 C1          -0.6680    -0.9440    -0.0190 cc         1 0SQ       0.084300
      6 C3          -2.0030    -0.6100     0.0070 cd         1 0SQ      -0.319300
      7 C5          -2.0150     0.8020     0.0680 cd         1 0SQ       0.347600
      8 C6          -3.2300     1.6910     0.1130 c3         1 0SQ      -0.072300
      9 C9          -4.0690     1.4570    -1.1490 c3         1 0SQ      -0.079433
     10 C8          -4.0670     1.3380     1.3480 c3         1 0SQ      -0.079433
     11 C7          -2.8310     3.1640     0.1840 c3         1 0SQ      -0.079433
     12 N4          -0.7960     1.2910     0.0800 nc         1 0SQ      -0.512800
     13 N2           0.0250     0.2220     0.0420 na         1 0SQ       0.120300
     14 C10          1.4230     0.4130     0.0150 ca         1 0SQ       0.009800
     15 C19          2.2390    -0.2220     0.9430 ca         1 0SQ      -0.124500
     16 C18          3.6130    -0.0290     0.8960 ca         1 0SQ      -0.123000
     17 C17          4.1920     0.8110    -0.0510 ca         1 0SQ      -0.072300
     18 C20          5.6790     1.0020    -0.1130 c3         1 0SQ      -0.048800
     19 C15          3.3520     1.4570    -0.9580 ca         1 0SQ      -0.123000
     20 C16          1.9820     1.2580    -0.9370 ca         1 0SQ      -0.124500
     21 H1          -0.0850    -5.3410    -0.1010 hn         1 0SQ       0.317500
     22 H2           1.2530    -4.2900    -0.2610 hn         1 0SQ       0.317500
     23 H3           0.9860    -2.0990    -0.3500 hn         1 0SQ       0.323500
     24 H4          -2.8430    -1.2790    -0.0290 ha         1 0SQ       0.188000
     25 H5          -4.4000     0.4200    -1.2280 hc         1 0SQ       0.036367
     26 H6          -4.9590     2.0890    -1.1350 hc         1 0SQ       0.036367
     27 H7          -3.5020     1.6960    -2.0510 hc         1 0SQ       0.036367
     28 H8          -3.4970     1.4780     2.2680 hc         1 0SQ       0.036367
     29 H9          -4.9510     1.9780     1.4010 hc         1 0SQ       0.036367
     30 H10         -4.4100     0.3020     1.3220 hc         1 0SQ       0.036367
     31 H11         -2.2310     3.4660    -0.6760 hc         1 0SQ       0.036367
     32 H12         -3.7290     3.7840     0.1970 hc         1 0SQ       0.036367
     33 H13         -2.2590     3.3880     1.0850 hc         1 0SQ       0.036367
     34 H14          1.8090    -0.8490     1.7140 ha         1 0SQ       0.149500
     35 H15          4.2400    -0.5310     1.6230 ha         1 0SQ       0.135500
     36 H16          6.1180     0.3670    -0.8850 hc         1 0SQ       0.045367
     37 H17          5.9390     2.0310    -0.3580 hc         1 0SQ       0.045367
     38 H18          6.1570     0.7440     0.8310 hc         1 0SQ       0.045367
     39 H19          3.7760     2.1220    -1.7010 ha         1 0SQ       0.135500
     40 H20          1.3450     1.7560    -1.6560 ha         1 0SQ       0.149500
@<TRIPOS>BOND
     1     1     2 2   
     2     2     3 1   
     3     2     4 1   
     4     3    21 1   
     5     3    22 1   
     6     4     5 1   
     7     4    23 1   
     8     5     6 2   
     9     5    13 1   
    10     6     7 1   
    11     6    24 1   
    12     7     8 1   
    13     7    12 2   
    14     8     9 1   
    15     8    10 1   
    16     8    11 1   
    17     9    25 1   
    18     9    26 1   
    19     9    27 1   
    20    10    28 1   
    21    10    29 1   
    22    10    30 1   
    23    11    31 1   
    24    11    32 1   
    25    11    33 1   
    26    12    13 1   
    27    13    14 1   
    28    14    15 ar  
    29    14    20 ar  
    30    15    16 ar  
    31    15    34 1   
    32    16    17 ar  
    33    16    35 1   
    34    17    18 1   
    35    17    19 ar  
    36    18    36 1   
    37    18    37 1   
    38    18    38 1   
    39    19    20 ar  
    40    19    39 1   
    41    20    40 1   
@<TRIPOS>SUBSTRUCTURE
     1 0SQ         1 TEMP              0 ****  ****    0 ROOT
