@<TRIPOS>MOLECULE
0SR
   62    64     1     0     0
SMALL
bcc


@<TRIPOS>ATOM
      1 O28         -0.2270    -2.4660    -0.3090 o          1 0SR      -0.611100
      2 C17         -0.2600    -1.2580    -0.1340 c          1 0SR       0.802100
      3 N16          0.8810    -0.4880    -0.0400 ns         1 0SR      -0.488100
      4 C10          2.1640    -0.9840    -0.0850 cc         1 0SR       0.087300
      5 C11          2.6840    -2.2590    -0.0930 cd         1 0SR      -0.321300
      6 C9           4.0850    -2.0700    -0.0810 cd         1 0SR       0.346600
      7 C12          5.1350    -3.1500    -0.0860 c3         1 0SR      -0.073300
      8 C15          4.9460    -4.0330     1.1530 c3         1 0SR      -0.079433
      9 C14          4.9590    -4.0080    -1.3450 c3         1 0SR      -0.079433
     10 C13          6.5410    -2.5520    -0.0720 c3         1 0SR      -0.079433
     11 N8           4.3980    -0.7950    -0.0680 nc         1 0SR      -0.511800
     12 N7           3.2230    -0.1330    -0.0840 na         1 0SR       0.117300
     13 C4           3.2060     1.2780    -0.0500 ca         1 0SR       0.008800
     14 C2           3.8770     1.9500     0.9660 ca         1 0SR      -0.124500
     15 C6           2.5350     1.9970    -1.0300 ca         1 0SR      -0.124500
     16 C5           2.5140     3.3840    -0.9740 ca         1 0SR      -0.123500
     17 C3           3.1750     4.0750     0.0380 ca         1 0SR      -0.071300
     18 C29          3.1320     5.5720     0.1130 c3         1 0SR      -0.048800
     19 C1           3.8640     3.3330     0.9980 ca         1 0SR      -0.123500
     20 N18         -1.4030    -0.5540    -0.0210 ns         1 0SR      -0.594900
     21 C19         -2.6980    -1.1980    -0.0610 c3         1 0SR       0.120000
     22 C20         -3.8040    -0.1590     0.0300 c3         1 0SR      -0.100400
     23 C21         -5.1750    -0.8170    -0.0680 c3         1 0SR       0.173800
     24 N22         -6.2600     0.0730     0.2930 n3         1 0SR      -0.721600
     25 C27         -7.5120    -0.6450     0.4430 c6         1 0SR       0.127300
     26 C26         -8.6050     0.3020     0.8970 c6         1 0SR       0.129900
     27 O24         -8.7670     1.3760    -0.0030 os         1 0SR      -0.401600
     28 C23         -7.5550     2.0790    -0.1660 c6         1 0SR       0.129900
     29 C25         -6.4350     1.1720    -0.6390 c6         1 0SR       0.127300
     30 H1           0.7780     0.5040     0.1110 hn         1 0SR       0.321500
     31 H2           2.1400    -3.1850    -0.0930 ha         1 0SR       0.188000
     32 H3           3.9620    -4.5040     1.1640 hc         1 0SR       0.036256
     33 H4           5.6940    -4.8280     1.1730 hc         1 0SR       0.036256
     34 H5           5.0470    -3.4520     2.0720 hc         1 0SR       0.036256
     35 H6           5.0680    -3.4100    -2.2520 hc         1 0SR       0.036256
     36 H7           5.7070    -4.8030    -1.3730 hc         1 0SR       0.036256
     37 H8           3.9750    -4.4790    -1.3750 hc         1 0SR       0.036256
     38 H9           6.7130    -1.9470     0.8190 hc         1 0SR       0.036256
     39 H10          7.2820    -3.3530    -0.0810 hc         1 0SR       0.036256
     40 H11          6.7200    -1.9200    -0.9430 hc         1 0SR       0.036256
     41 H12          4.4040     1.3890     1.7270 ha         1 0SR       0.150000
     42 H13          2.0440     1.4830    -1.8470 ha         1 0SR       0.150000
     43 H14          1.9880     3.9330    -1.7440 ha         1 0SR       0.135000
     44 H15          2.4320     5.9010     0.8830 hc         1 0SR       0.045367
     45 H16          4.1070     5.9870     0.3690 hc         1 0SR       0.045367
     46 H17          2.8130     6.0130    -0.8300 hc         1 0SR       0.045367
     47 H18          4.3900     3.8470     1.7930 ha         1 0SR       0.135000
     48 H19         -1.3720     0.4370     0.1560 hn         1 0SR       0.312500
     49 H20         -2.8010    -1.7690    -0.9880 h1         1 0SR       0.053200
     50 H21         -2.7970    -1.9090     0.7640 h1         1 0SR       0.053200
     51 H22         -3.7350     0.3750     0.9830 hc         1 0SR       0.051200
     52 H23         -3.6690     0.5780    -0.7650 hc         1 0SR       0.051200
     53 H24         -5.3080    -1.2360    -1.0810 h1         1 0SR       0.036200
     54 H25         -5.2040    -1.6650     0.6230 h1         1 0SR       0.036200
     55 H27         -7.8200    -1.1350    -0.4980 h1         1 0SR       0.040950
     56 H28         -7.3920    -1.4320     1.1920 h1         1 0SR       0.040950
     57 H29         -9.5590    -0.2240     0.9560 h1         1 0SR       0.051200
     58 H30         -8.3640     0.6780     1.9020 h1         1 0SR       0.051200
     59 H31         -7.7310     2.8700    -0.8960 h1         1 0SR       0.051200
     60 H32         -7.2580     2.5530     0.7810 h1         1 0SR       0.051200
     61 H33         -5.5200     1.7640    -0.6980 h1         1 0SR       0.040950
     62 H34         -6.6560     0.8090    -1.6590 h1         1 0SR       0.040950
@<TRIPOS>BOND
     1     1     2 2   
     2     2     3 1   
     3     2    20 1   
     4     3     4 1   
     5     3    30 1   
     6     4     5 2   
     7     4    12 1   
     8     5     6 1   
     9     5    31 1   
    10     6     7 1   
    11     6    11 2   
    12     7     8 1   
    13     7     9 1   
    14     7    10 1   
    15     8    32 1   
    16     8    33 1   
    17     8    34 1   
    18     9    35 1   
    19     9    36 1   
    20     9    37 1   
    21    10    38 1   
    22    10    39 1   
    23    10    40 1   
    24    11    12 1   
    25    12    13 1   
    26    13    14 ar  
    27    13    15 ar  
    28    14    19 ar  
    29    14    41 1   
    30    15    16 ar  
    31    15    42 1   
    32    16    17 ar  
    33    16    43 1   
    34    17    18 1   
    35    17    19 ar  
    36    18    44 1   
    37    18    45 1   
    38    18    46 1   
    39    19    47 1   
    40    20    21 1   
    41    20    48 1   
    42    21    22 1   
    43    21    49 1   
    44    21    50 1   
    45    22    23 1   
    46    22    51 1   
    47    22    52 1   
    48    23    24 1   
    49    23    53 1   
    50    23    54 1   
    51    24    25 1   
    52    24    29 1   
    53    25    26 1   
    54    25    55 1   
    55    25    56 1   
    56    26    27 1   
    57    26    57 1   
    58    26    58 1   
    59    27    28 1   
    60    28    29 1   
    61    28    59 1   
    62    28    60 1   
    63    29    61 1   
    64    29    62 1   
@<TRIPOS>SUBSTRUCTURE
     1 0SR         1 TEMP              0 ****  ****    0 ROOT
