@<TRIPOS>MOLECULE
0SR
   62    64     1     0     0
SMALL
No Charge or Current Charge


@<TRIPOS>ATOM
      1 O28         -0.1940    -2.6020    -0.0770 o          1 0SR      -0.611100
      2 C17         -0.2180    -1.3870     0.0220 c          1 0SR       0.668100
      3 N16          0.8930    -0.5800     0.0530 ns         1 0SR      -0.421100
      4 C10          2.2370    -0.9410    -0.0130 cc         1 0SR       0.036600
      5 C11          2.7960    -2.1820    -0.0900 cd         1 0SR      -0.238000
      6 C9           4.2080    -2.0240    -0.1140 cd         1 0SR       0.281300
      7 C12          5.2270    -3.1610    -0.1960 c3         1 0SR      -0.073300
      8 C15          5.0390    -4.0980     1.0270 c3         1 0SR      -0.079433
      9 C14          4.9840    -3.9650    -1.5000 c3         1 0SR      -0.079433
     10 C13          6.6960    -2.6440    -0.2000 c3         1 0SR      -0.079433
     11 N8           4.5720    -0.7490    -0.0580 nc         1 0SR      -0.511800
     12 N7           3.3540    -0.1150     0.0090 na         1 0SR       0.168000
     13 C4           3.2910     1.2800     0.0370 ca         1 0SR       0.008800
     14 C2           3.9220     2.0000     1.0710 ca         1 0SR      -0.106500
     15 C6           2.5950     1.9830    -0.9670 ca         1 0SR      -0.106500
     16 C5           2.5260     3.3870    -0.9330 ca         1 0SR      -0.105500
     17 C3           3.1550     4.1040     0.1020 ca         1 0SR      -0.071300
     18 C29          3.0770     5.6230     0.1400 c3         1 0SR      -0.048800
     19 C1           3.8520     3.4040     1.1040 ca         1 0SR      -0.105500
     20 N18         -1.3850    -0.6750     0.1150 ns         1 0SR      -0.527900
     21 C19         -2.7150    -1.2840     0.1050 c3         1 0SR       0.120000
     22 C20         -3.8280    -0.2220     0.1550 c3         1 0SR      -0.100400
     23 C21         -5.2390    -0.8490     0.1450 c3         1 0SR       0.173800
     24 N22         -6.3460     0.1190     0.3450 n3         1 0SR      -0.721600
     25 C27         -7.6630    -0.5630     0.5510 c6         1 0SR       0.127300
     26 C26         -8.8180     0.4560     0.7850 c6         1 0SR       0.153100
     27 O24         -8.8790     1.4040    -0.3080 os         1 0SR      -0.448000
     28 C23         -7.6430     2.1360    -0.4770 c6         1 0SR       0.153100
     29 C25         -6.4590     1.1550    -0.7340 c6         1 0SR       0.127300
     30 H1           0.6870     0.4060     0.1380 hn         1 0SR       0.321500
     31 H2           2.2710    -3.1280    -0.1240 ha         1 0SR       0.170000
     32 H3           4.0320    -4.5310     1.0440 hc         1 0SR       0.036256
     33 H4           5.7590    -4.9250     1.0040 hc         1 0SR       0.036256
     34 H5           5.1850    -3.5460     1.9640 hc         1 0SR       0.036256
     35 H6           5.0910    -3.3180    -2.3800 hc         1 0SR       0.036256
     36 H7           5.7030    -4.7880    -1.5960 hc         1 0SR       0.036256
     37 H8           3.9760    -4.3960    -1.5190 hc         1 0SR       0.036256
     38 H9           6.9180    -2.0800     0.7140 hc         1 0SR       0.036256
     39 H10          7.4060    -3.4780    -0.2590 hc         1 0SR       0.036256
     40 H11          6.8800    -1.9880    -1.0600 hc         1 0SR       0.036256
     41 H12          4.4630     1.4690     1.8500 ha         1 0SR       0.132000
     42 H13          2.1120     1.4420    -1.7780 ha         1 0SR       0.132000
     43 H14          1.9840     3.9180    -1.7130 ha         1 0SR       0.117000
     44 H15          2.1990     5.9540     0.7070 hc         1 0SR       0.045367
     45 H16          3.9650     6.0570     0.6140 hc         1 0SR       0.045367
     46 H17          3.0040     6.0450    -0.8690 hc         1 0SR       0.045367
     47 H18          4.3410     3.9470     1.9100 ha         1 0SR       0.117000
     48 H19         -1.3180     0.3310     0.1960 hn         1 0SR       0.312500
     49 H20         -2.8230    -1.8860    -0.8070 h1         1 0SR       0.053200
     50 H21         -2.8040    -1.9530     0.9720 h1         1 0SR       0.053200
     51 H22         -3.7100     0.3810     1.0630 hc         1 0SR       0.051200
     52 H23         -3.7120     0.4480    -0.7040 hc         1 0SR       0.051200
     53 H24         -5.3790    -1.3880    -0.8020 h1         1 0SR       0.036200
     54 H25         -5.2730    -1.5990     0.9470 h1         1 0SR       0.036200
     55 H27         -7.9130    -1.1810    -0.3250 h1         1 0SR       0.040950
     56 H28         -7.6120    -1.2400     1.4160 h1         1 0SR       0.040950
     57 H29         -9.7780    -0.0750     0.8550 h1         1 0SR       0.051200
     58 H30         -8.6560     0.9980     1.7280 h1         1 0SR       0.051200
     59 H31         -7.7470     2.8270    -1.3260 h1         1 0SR       0.051200
     60 H32         -7.4470     2.7310     0.4260 h1         1 0SR       0.051200
     61 H33         -5.5370     1.7490    -0.8040 h1         1 0SR       0.040950
     62 H34         -6.6080     0.6730    -1.7120 h1         1 0SR       0.040950
@<TRIPOS>BOND
     1     1     2 2   
     2     2     3 1   
     3     2    20 1   
     4     3     4 1   
     5     3    30 1   
     6     4     5 2   
     7     4    12 1   
     8     5     6 1   
     9     5    31 1   
    10     6     7 1   
    11     6    11 2   
    12     7     8 1   
    13     7     9 1   
    14     7    10 1   
    15     8    32 1   
    16     8    33 1   
    17     8    34 1   
    18     9    35 1   
    19     9    36 1   
    20     9    37 1   
    21    10    38 1   
    22    10    39 1   
    23    10    40 1   
    24    11    12 1   
    25    12    13 1   
    26    13    14 ar  
    27    13    15 ar  
    28    14    19 ar  
    29    14    41 1   
    30    15    16 ar  
    31    15    42 1   
    32    16    17 ar  
    33    16    43 1   
    34    17    18 1   
    35    17    19 ar  
    36    18    44 1   
    37    18    45 1   
    38    18    46 1   
    39    19    47 1   
    40    20    21 1   
    41    20    48 1   
    42    21    22 1   
    43    21    49 1   
    44    21    50 1   
    45    22    23 1   
    46    22    51 1   
    47    22    52 1   
    48    23    24 1   
    49    23    53 1   
    50    23    54 1   
    51    24    25 1   
    52    24    29 1   
    53    25    26 1   
    54    25    55 1   
    55    25    56 1   
    56    26    27 1   
    57    26    57 1   
    58    26    58 1   
    59    27    28 1   
    60    28    29 1   
    61    28    59 1   
    62    28    60 1   
    63    29    61 1   
    64    29    62 1   
@<TRIPOS>SUBSTRUCTURE
     1 0SR         1 TEMP              0 ****  ****    0 ROOT
