@<TRIPOS>MOLECULE
0SS
   96   100     1     0     0
SMALL
abcg2


@<TRIPOS>ATOM
      1 O31          3.9100    -1.5940     0.7830 o          1 0SS      -0.608100
      2 C29          4.1610    -0.5040     1.2680 c          1 0SS       0.666100
      3 N30          5.3990     0.0920     1.1500 ns         1 0SS      -0.422100
      4 C32          6.4860    -0.4930     0.5390 cc         1 0SS       0.029600
      5 N35          7.5750     0.2520     0.2160 na         1 0SS       0.175000
      6 C41          7.7770     1.6350     0.4080 ca         1 0SS       0.009800
      7 C46          6.8470     2.5580    -0.0600 ca         1 0SS      -0.107000
      8 C45          7.0590     3.9120     0.1450 ca         1 0SS      -0.105000
      9 C44          8.2010     4.3760     0.7950 ca         1 0SS      -0.072300
     10 C47          8.4090     5.8440     1.0270 c3         1 0SS      -0.048800
     11 C43          9.1310     3.4360     1.2330 ca         1 0SS      -0.105000
     12 C42          8.9250     2.0780     1.0540 ca         1 0SS      -0.107000
     13 N36          8.5660    -0.5070    -0.2910 nc         1 0SS      -0.511800
     14 C34          8.0960    -1.7330    -0.3200 cd         1 0SS       0.281300
     15 C37          8.9050    -2.8870    -0.8510 c3         1 0SS      -0.072300
     16 C40          8.9380    -4.0000     0.2020 c3         1 0SS      -0.080100
     17 C39          8.2420    -3.4200    -2.1270 c3         1 0SS      -0.080100
     18 C38         10.3360    -2.4560    -1.1710 c3         1 0SS      -0.080100
     19 C33          6.7800    -1.7910     0.1910 cd         1 0SS      -0.232000
     20 N28          3.2730     0.2260     1.9780 ns         1 0SS      -0.524900
     21 C27          1.8980    -0.1840     2.1430 c3         1 0SS       0.116000
     22 C26          1.0200     0.2240     0.9620 c3         1 0SS       0.141800
     23 N24         -0.3670    -0.1350     1.1790 n3         1 0SS      -0.723600
     24 C23         -1.2740     0.6470     0.3670 c6         1 0SS       0.154800
     25 C21         -2.7160     0.3500     0.7300 c6         1 0SS       0.098000
     26 C25         -0.6250    -1.5440     0.9570 c6         1 0SS       0.154800
     27 C22         -2.0470    -1.9040     1.3390 c6         1 0SS       0.098000
     28 N19         -2.9980    -1.0760     0.6130 n          1 0SS      -0.411800
     29 C18         -4.2510    -1.5830     0.4290 c          1 0SS       0.664100
     30 O20         -4.5790    -2.7020     0.7880 o          1 0SS      -0.606100
     31 N17         -5.1350    -0.7530    -0.2210 ns         1 0SS      -0.419100
     32 C10         -6.4740    -1.0360    -0.3970 cc         1 0SS       0.026600
     33 C12         -7.2090    -2.1980    -0.3820 cd         1 0SS      -0.226000
     34 C11         -8.5280    -1.7880    -0.6840 cd         1 0SS       0.279300
     35 C13         -9.7440    -2.6700    -0.7870 c3         1 0SS      -0.072300
     36 C16        -10.9980    -1.8460    -1.0740 c3         1 0SS      -0.079433
     37 C15         -9.5350    -3.6830    -1.9190 c3         1 0SS      -0.079433
     38 C14         -9.9270    -3.4240     0.5370 c3         1 0SS      -0.079433
     39 N9          -8.5920    -0.4900    -0.8760 nc         1 0SS      -0.511800
     40 N8          -7.3420    -0.0300    -0.6830 na         1 0SS       0.174000
     41 C4          -7.0710     1.3490    -0.8170 ca         1 0SS       0.011800
     42 C2          -7.5190     2.0290    -1.9440 ca         1 0SS      -0.107000
     43 C6          -6.3800     2.0320     0.1750 ca         1 0SS      -0.107000
     44 C5          -6.1190     3.3870     0.0230 ca         1 0SS      -0.105500
     45 C3          -6.5590     4.0870    -1.0960 ca         1 0SS      -0.073300
     46 C7          -6.2730     5.5500    -1.2630 c3         1 0SS      -0.048800
     47 C1          -7.2710     3.3850    -2.0700 ca         1 0SS      -0.105500
     48 H1           5.5550     0.9800     1.6050 hn         1 0SS       0.322500
     49 H2           5.9680     2.2290    -0.6000 ha         1 0SS       0.132000
     50 H3           6.3260     4.6190    -0.2240 ha         1 0SS       0.117000
     51 H4           7.7990     6.1960     1.8610 hc         1 0SS       0.045033
     52 H5           9.4480     6.0680     1.2650 hc         1 0SS       0.045033
     53 H6           8.1270     6.4310     0.1530 hc         1 0SS       0.045033
     54 H7          10.0340     3.7690     1.7320 ha         1 0SS       0.117000
     55 H8           9.6550     1.3630     1.4090 ha         1 0SS       0.132000
     56 H9           7.9360    -4.3490     0.4550 hc         1 0SS       0.036700
     57 H10          9.5020    -4.8590    -0.1700 hc         1 0SS       0.036700
     58 H11          9.4160    -3.6600     1.1230 hc         1 0SS       0.036700
     59 H12          8.2150    -2.6570    -2.9070 hc         1 0SS       0.036700
     60 H13          8.8000    -4.2760    -2.5120 hc         1 0SS       0.036700
     61 H14          7.2170    -3.7470    -1.9430 hc         1 0SS       0.036700
     62 H15         10.8530    -2.0820    -0.2860 hc         1 0SS       0.036700
     63 H16         10.9010    -3.3090    -1.5510 hc         1 0SS       0.036700
     64 H17         10.3650    -1.6730    -1.9290 hc         1 0SS       0.036700
     65 H18          6.1540    -2.6570     0.3050 ha         1 0SS       0.168000
     66 H19          3.5180     1.1510     2.2900 hn         1 0SS       0.310500
     67 H20          1.8690    -1.2610     2.3080 h1         1 0SS       0.065700
     68 H21          1.5180     0.2860     3.0500 h1         1 0SS       0.065700
     69 H22          1.0820     1.3100     0.8540 h1         1 0SS       0.041200
     70 H23          1.4190    -0.2080     0.0300 h1         1 0SS       0.041200
     71 H25         -1.0960     1.7100     0.5440 h1         1 0SS       0.045450
     72 H26         -1.1290     0.4650    -0.7110 h1         1 0SS       0.045450
     73 H27         -2.9150     0.6870     1.7540 h1         1 0SS       0.054200
     74 H28         -3.3410     0.9450     0.0670 h1         1 0SS       0.054200
     75 H29         -0.4450    -1.8270    -0.0950 h1         1 0SS       0.045450
     76 H30          0.0450    -2.1500     1.5690 h1         1 0SS       0.045450
     77 H31         -2.2200    -2.9510     1.1040 h1         1 0SS       0.054200
     78 H32         -2.1790    -1.7780     2.4210 h1         1 0SS       0.054200
     79 H33         -4.7920     0.0770    -0.6770 hn         1 0SS       0.328500
     80 H34         -6.8530    -3.1950    -0.1990 ha         1 0SS       0.169000
     81 H35        -11.1850    -1.1090    -0.2910 hc         1 0SS       0.036478
     82 H36        -10.9250    -1.3120    -2.0220 hc         1 0SS       0.036478
     83 H37        -11.8680    -2.5030    -1.1290 hc         1 0SS       0.036478
     84 H38        -10.3970    -4.3500    -1.9940 hc         1 0SS       0.036478
     85 H39         -9.4150    -3.1820    -2.8810 hc         1 0SS       0.036478
     86 H40         -8.6520    -4.3020    -1.7500 hc         1 0SS       0.036478
     87 H41        -10.0580    -2.7330     1.3710 hc         1 0SS       0.036478
     88 H42        -10.8090    -4.0650     0.4890 hc         1 0SS       0.036478
     89 H43         -9.0690    -4.0600     0.7610 hc         1 0SS       0.036478
     90 H44         -8.0620     1.4990    -2.7150 ha         1 0SS       0.132500
     91 H45         -6.0600     1.5220     1.0750 ha         1 0SS       0.132500
     92 H46         -5.5800     3.9080     0.8050 ha         1 0SS       0.116500
     93 H47         -5.5000     5.7150    -2.0160 hc         1 0SS       0.044700
     94 H48         -7.1600     6.0940    -1.5900 hc         1 0SS       0.044700
     95 H49         -5.9270     5.9990    -0.3330 hc         1 0SS       0.044700
     96 H50         -7.6330     3.9070    -2.9470 ha         1 0SS       0.116500
@<TRIPOS>BOND
     1     1     2 2   
     2     2     3 1   
     3     2    20 1   
     4     3     4 1   
     5     3    48 1   
     6     4     5 1   
     7     4    19 2   
     8     5     6 1   
     9     5    13 1   
    10     6     7 ar  
    11     6    12 ar  
    12     7     8 ar  
    13     7    49 1   
    14     8     9 ar  
    15     8    50 1   
    16     9    10 1   
    17     9    11 ar  
    18    10    51 1   
    19    10    52 1   
    20    10    53 1   
    21    11    12 ar  
    22    11    54 1   
    23    12    55 1   
    24    13    14 2   
    25    14    15 1   
    26    14    19 1   
    27    15    16 1   
    28    15    17 1   
    29    15    18 1   
    30    16    56 1   
    31    16    57 1   
    32    16    58 1   
    33    17    59 1   
    34    17    60 1   
    35    17    61 1   
    36    18    62 1   
    37    18    63 1   
    38    18    64 1   
    39    19    65 1   
    40    20    21 1   
    41    20    66 1   
    42    21    22 1   
    43    21    67 1   
    44    21    68 1   
    45    22    23 1   
    46    22    69 1   
    47    22    70 1   
    48    23    24 1   
    49    23    26 1   
    50    24    25 1   
    51    24    71 1   
    52    24    72 1   
    53    25    28 1   
    54    25    73 1   
    55    25    74 1   
    56    26    27 1   
    57    26    75 1   
    58    26    76 1   
    59    27    28 1   
    60    27    77 1   
    61    27    78 1   
    62    28    29 1   
    63    29    30 2   
    64    29    31 1   
    65    31    32 1   
    66    31    79 1   
    67    32    33 2   
    68    32    40 1   
    69    33    34 1   
    70    33    80 1   
    71    34    35 1   
    72    34    39 2   
    73    35    36 1   
    74    35    37 1   
    75    35    38 1   
    76    36    81 1   
    77    36    82 1   
    78    36    83 1   
    79    37    84 1   
    80    37    85 1   
    81    37    86 1   
    82    38    87 1   
    83    38    88 1   
    84    38    89 1   
    85    39    40 1   
    86    40    41 1   
    87    41    42 ar  
    88    41    43 ar  
    89    42    47 ar  
    90    42    90 1   
    91    43    44 ar  
    92    43    91 1   
    93    44    45 ar  
    94    44    92 1   
    95    45    46 1   
    96    45    47 ar  
    97    46    93 1   
    98    46    94 1   
    99    46    95 1   
   100    47    96 1   
@<TRIPOS>SUBSTRUCTURE
     1 0SS         1 TEMP              0 ****  ****    0 ROOT
