@<TRIPOS>MOLECULE
0SS
   96   100     1     0     0
SMALL
No Charge or Current Charge


@<TRIPOS>ATOM
      1 O31          3.9900    -1.5120     0.4850 o          1 0SS      -0.608100
      2 C29          4.2620    -0.5110     1.1260 c          1 0SS       0.666100
      3 N30          5.4850     0.1150     1.1190 ns         1 0SS      -0.422100
      4 C32          6.6380    -0.2290     0.4170 cc         1 0SS       0.029600
      5 N35          7.8680     0.4180     0.4080 na         1 0SS       0.175000
      6 C41          8.1260     1.6110     1.0870 ca         1 0SS       0.009800
      7 C46          7.3430     2.7570     0.8390 ca         1 0SS      -0.107000
      8 C45          7.5990     3.9550     1.5290 ca         1 0SS      -0.105000
      9 C44          8.6430     4.0230     2.4700 ca         1 0SS      -0.072300
     10 C47          8.9180     5.3180     3.2190 c3         1 0SS      -0.048800
     11 C43          9.4270     2.8810     2.7170 ca         1 0SS      -0.105000
     12 C42          9.1720     1.6820     2.0280 ca         1 0SS      -0.107000
     13 N36          8.8430    -0.1550    -0.3740 nc         1 0SS      -0.511800
     14 C34          8.2060    -1.2090    -0.8680 cd         1 0SS       0.281300
     15 C37          8.8790    -2.1990    -1.8190 c3         1 0SS      -0.072300
     16 C40          8.8490    -3.6130    -1.1820 c3         1 0SS      -0.080100
     17 C39          8.1000    -2.2230    -3.1600 c3         1 0SS      -0.080100
     18 C38         10.3610    -1.8230    -2.1150 c3         1 0SS      -0.080100
     19 C33          6.8620    -1.2880    -0.4120 cd         1 0SS      -0.232000
     20 N28          3.3580     0.1150     1.9460 ns         1 0SS      -0.524900
     21 C27          1.9650    -0.3180     2.1250 c3         1 0SS       0.116000
     22 C26          1.0750    -0.0120     0.8930 c3         1 0SS       0.141800
     23 N24         -0.3750    -0.2920     1.0780 n3         1 0SS      -0.723600
     24 C23         -1.1840     0.2040    -0.0630 c6         1 0SS       0.154800
     25 C21         -2.7120     0.0460     0.1680 c6         1 0SS       0.098000
     26 C25         -0.6800    -1.7340     1.2860 c6         1 0SS       0.154800
     27 C22         -2.1820    -1.9870     1.5870 c6         1 0SS       0.098000
     28 N19         -3.1550    -1.2900     0.6890 n          1 0SS      -0.411800
     29 C18         -4.5120    -1.6760     0.7110 c          1 0SS       0.664100
     30 O20         -4.8820    -2.6770     1.3050 o          1 0SS      -0.606100
     31 N17         -5.3770    -0.8520     0.0230 ns         1 0SS      -0.419100
     32 C10         -6.7570    -0.9550    -0.1370 cc         1 0SS       0.026600
     33 C12         -7.6160    -1.9140     0.3120 cd         1 0SS      -0.226000
     34 C11         -8.9210    -1.5720    -0.1330 cd         1 0SS       0.279300
     35 C13        -10.1920    -2.3760     0.1460 c3         1 0SS      -0.072300
     36 C16        -11.4570    -1.7250    -0.4880 c3         1 0SS      -0.079433
     37 C15        -10.0270    -3.8030    -0.4400 c3         1 0SS      -0.079433
     38 C14        -10.4040    -2.4710     1.6800 c3         1 0SS      -0.079433
     39 N9          -8.9340    -0.4470    -0.8370 nc         1 0SS      -0.511800
     40 N8          -7.6040    -0.0990    -0.8280 na         1 0SS       0.174000
     41 C4          -7.1820     1.0830    -1.4410 ca         1 0SS       0.011800
     42 C2          -7.4100     1.2920    -2.8160 ca         1 0SS      -0.107000
     43 C6          -6.5130     2.0740    -0.6950 ca         1 0SS      -0.107000
     44 C5          -6.0720     3.2550    -1.3180 ca         1 0SS      -0.105500
     45 C3          -6.2990     3.4610    -2.6910 ca         1 0SS      -0.073300
     46 C7          -5.8190     4.7370    -3.3650 c3         1 0SS      -0.048800
     47 C1          -6.9690     2.4730    -3.4370 ca         1 0SS      -0.105500
     48 H1           5.5350     0.9330     1.7110 hn         1 0SS       0.322500
     49 H2           6.5390     2.7210     0.1060 ha         1 0SS       0.132000
     50 H3           6.9870     4.8310     1.3290 ha         1 0SS       0.117000
     51 H4           8.3370     5.3630     4.1470 hc         1 0SS       0.045033
     52 H5           9.9790     5.4110     3.4820 hc         1 0SS       0.045033
     53 H6           8.6520     6.1940     2.6140 hc         1 0SS       0.045033
     54 H7          10.2360     2.9200     3.4440 ha         1 0SS       0.117000
     55 H8           9.7840     0.8050     2.2270 ha         1 0SS       0.132000
     56 H9           7.8190    -3.9460    -1.0030 hc         1 0SS       0.036700
     57 H10          9.3300    -4.3510    -1.8360 hc         1 0SS       0.036700
     58 H11          9.3760    -3.6170    -0.2200 hc         1 0SS       0.036700
     59 H12          8.0890    -1.2270    -3.6200 hc         1 0SS       0.036700
     60 H13          8.5590    -2.9200    -3.8710 hc         1 0SS       0.036700
     61 H14          7.0590    -2.5350    -3.0090 hc         1 0SS       0.036700
     62 H15         10.9570    -1.8090    -1.1940 hc         1 0SS       0.036700
     63 H16         10.8210    -2.5480    -2.7980 hc         1 0SS       0.036700
     64 H17         10.4310    -0.8330    -2.5830 hc         1 0SS       0.036700
     65 H18          6.1540    -2.0620    -0.6810 ha         1 0SS       0.168000
     66 H19          3.6700     0.9370     2.4460 hn         1 0SS       0.310500
     67 H20          1.9570    -1.3950     2.3340 h1         1 0SS       0.065700
     68 H21          1.5500     0.1990     3.0010 h1         1 0SS       0.065700
     69 H22          1.2060     1.0520     0.6560 h1         1 0SS       0.041200
     70 H23          1.4570    -0.5780     0.0330 h1         1 0SS       0.041200
     71 H25         -0.9720     1.2670    -0.2520 h1         1 0SS       0.045450
     72 H26         -0.9130    -0.3410    -0.9800 h1         1 0SS       0.045450
     73 H27         -3.0330     0.8140     0.8850 h1         1 0SS       0.054200
     74 H28         -3.2100     0.2620    -0.7880 h1         1 0SS       0.054200
     75 H29         -0.4020    -2.3090     0.3900 h1         1 0SS       0.045450
     76 H30         -0.0970    -2.1450     2.1220 h1         1 0SS       0.045450
     77 H31         -2.3600    -3.0710     1.5520 h1         1 0SS       0.054200
     78 H32         -2.3840    -1.6630     2.6180 h1         1 0SS       0.054200
     79 H33         -4.9230    -0.0680    -0.4210 hn         1 0SS       0.328500
     80 H34         -7.3620    -2.7870     0.9000 ha         1 0SS       0.169000
     81 H35        -11.6240    -0.7160    -0.0890 hc         1 0SS       0.036478
     82 H36        -11.3580    -1.6500    -1.5780 hc         1 0SS       0.036478
     83 H37        -12.3530    -2.3200    -0.2740 hc         1 0SS       0.036478
     84 H38        -10.9250    -4.4070    -0.2630 hc         1 0SS       0.036478
     85 H39         -9.8550    -3.7600    -1.5220 hc         1 0SS       0.036478
     86 H40         -9.1770    -4.3230     0.0170 hc         1 0SS       0.036478
     87 H41        -10.5020    -1.4710     2.1210 hc         1 0SS       0.036478
     88 H42        -11.3120    -3.0380     1.9180 hc         1 0SS       0.036478
     89 H43         -9.5590    -2.9720     2.1670 hc         1 0SS       0.036478
     90 H44         -7.9250     0.5340    -3.4030 ha         1 0SS       0.132500
     91 H45         -6.3390     1.9320     0.3700 ha         1 0SS       0.132500
     92 H46         -5.5560     4.0110    -0.7300 ha         1 0SS       0.116500
     93 H47         -4.7970     4.6170    -3.7450 hc         1 0SS       0.044700
     94 H48         -6.4610     5.0100    -4.2110 hc         1 0SS       0.044700
     95 H49         -5.8190     5.5830    -2.6660 hc         1 0SS       0.044700
     96 H50         -7.1490     2.6200    -4.5000 ha         1 0SS       0.116500
@<TRIPOS>BOND
     1     1     2 2   
     2     2     3 1   
     3     2    20 1   
     4     3     4 1   
     5     3    48 1   
     6     4     5 1   
     7     4    19 2   
     8     5     6 1   
     9     5    13 1   
    10     6     7 ar  
    11     6    12 ar  
    12     7     8 ar  
    13     7    49 1   
    14     8     9 ar  
    15     8    50 1   
    16     9    10 1   
    17     9    11 ar  
    18    10    51 1   
    19    10    52 1   
    20    10    53 1   
    21    11    12 ar  
    22    11    54 1   
    23    12    55 1   
    24    13    14 2   
    25    14    15 1   
    26    14    19 1   
    27    15    16 1   
    28    15    17 1   
    29    15    18 1   
    30    16    56 1   
    31    16    57 1   
    32    16    58 1   
    33    17    59 1   
    34    17    60 1   
    35    17    61 1   
    36    18    62 1   
    37    18    63 1   
    38    18    64 1   
    39    19    65 1   
    40    20    21 1   
    41    20    66 1   
    42    21    22 1   
    43    21    67 1   
    44    21    68 1   
    45    22    23 1   
    46    22    69 1   
    47    22    70 1   
    48    23    24 1   
    49    23    26 1   
    50    24    25 1   
    51    24    71 1   
    52    24    72 1   
    53    25    28 1   
    54    25    73 1   
    55    25    74 1   
    56    26    27 1   
    57    26    75 1   
    58    26    76 1   
    59    27    28 1   
    60    27    77 1   
    61    27    78 1   
    62    28    29 1   
    63    29    30 2   
    64    29    31 1   
    65    31    32 1   
    66    31    79 1   
    67    32    33 2   
    68    32    40 1   
    69    33    34 1   
    70    33    80 1   
    71    34    35 1   
    72    34    39 2   
    73    35    36 1   
    74    35    37 1   
    75    35    38 1   
    76    36    81 1   
    77    36    82 1   
    78    36    83 1   
    79    37    84 1   
    80    37    85 1   
    81    37    86 1   
    82    38    87 1   
    83    38    88 1   
    84    38    89 1   
    85    39    40 1   
    86    40    41 1   
    87    41    42 ar  
    88    41    43 ar  
    89    42    47 ar  
    90    42    90 1   
    91    43    44 ar  
    92    43    91 1   
    93    44    45 ar  
    94    44    92 1   
    95    45    46 1   
    96    45    47 ar  
    97    46    93 1   
    98    46    94 1   
    99    46    95 1   
   100    47    96 1   
@<TRIPOS>SUBSTRUCTURE
     1 0SS         1 TEMP              0 ****  ****    0 ROOT
