@<TRIPOS>MOLECULE
0ST
   59    61     1     0     0
SMALL
No Charge or Current Charge


@<TRIPOS>ATOM
      1 O21         -1.0420    -2.0640     0.0870 o          1 0ST      -0.606100
      2 C18         -0.8260    -0.8660     0.1660 c          1 0ST       0.666100
      3 N17          0.4230    -0.2930     0.1600 ns         1 0ST      -0.424100
      4 C11          1.6680    -0.9110     0.0730 cc         1 0ST       0.031600
      5 C12          1.9710    -2.2400     0.0070 cd         1 0ST      -0.230000
      6 C10          3.3860    -2.3620    -0.0480 cd         1 0ST       0.280300
      7 C13          4.1590    -3.6790    -0.1300 c3         1 0ST      -0.072300
      8 C16          3.7330    -4.4360    -1.4150 c3         1 0ST      -0.079433
      9 C15          5.7000    -3.4600    -0.1730 c3         1 0ST      -0.079433
     10 C14          3.8190    -4.5440     1.1120 c3         1 0ST      -0.079433
     11 N9           3.9940    -1.1830    -0.0220 nc         1 0ST      -0.512800
     12 N8           2.9260    -0.3210     0.0590 na         1 0ST       0.174000
     13 C4           3.1390     1.0590     0.0640 ca         1 0ST       0.009800
     14 C2           3.9240     1.6540     1.0710 ca         1 0ST      -0.107000
     15 C6           2.5710     1.8720    -0.9380 ca         1 0ST      -0.107000
     16 C5           2.7800     3.2630    -0.9270 ca         1 0ST      -0.105000
     17 C3           3.5620     3.8550     0.0810 ca         1 0ST      -0.072300
     18 C7           3.7860     5.3600     0.0940 c3         1 0ST      -0.048800
     19 C1           4.1320     3.0450     1.0810 ca         1 0ST      -0.105000
     20 N19         -1.8280     0.0620     0.2690 ns         1 0ST      -0.524900
     21 C20         -3.2570    -0.2780     0.2950 c3         1 0ST       0.116000
     22 C22         -4.1670     0.9700     0.1820 c3         1 0ST       0.152800
     23 N23         -5.6240     0.7030     0.3050 n3         1 0ST      -0.715600
     24 C28         -6.4260     1.9640     0.3970 c6         1 0ST       0.126300
     25 C27         -7.9490     1.6740     0.5500 c6         1 0ST       0.153600
     26 O25         -8.4100     0.8300    -0.5310 os         1 0ST      -0.448000
     27 C24         -7.7030    -0.4310    -0.5930 c6         1 0ST       0.153600
     28 C26         -6.1740    -0.1890    -0.7680 c6         1 0ST       0.126300
     29 H1           0.4160     0.7160     0.2320 hn         1 0ST       0.322500
     30 H2           1.2700    -3.0650     0.0000 ha         1 0ST       0.168000
     31 H3           3.9450    -3.8350    -2.3080 hc         1 0ST       0.036589
     32 H4           4.2740    -5.3860    -1.5110 hc         1 0ST       0.036589
     33 H5           2.6600    -4.6610    -1.4070 hc         1 0ST       0.036589
     34 H6           6.0500    -2.9400     0.7270 hc         1 0ST       0.036589
     35 H7           6.2310    -4.4190    -0.2310 hc         1 0ST       0.036589
     36 H8           5.9900    -2.8650    -1.0470 hc         1 0ST       0.036589
     37 H9           2.7470    -4.7710     1.1570 hc         1 0ST       0.036589
     38 H10          4.3620    -5.4970     1.0900 hc         1 0ST       0.036589
     39 H11          4.0920    -4.0200     2.0360 hc         1 0ST       0.036589
     40 H12          4.3690     1.0370     1.8490 ha         1 0ST       0.132000
     41 H13          1.9720     1.4260    -1.7290 ha         1 0ST       0.132000
     42 H14          2.3350     3.8790    -1.7050 ha         1 0ST       0.117000
     43 H15          3.0030     5.8660     0.6720 hc         1 0ST       0.045033
     44 H16          4.7530     5.6170     0.5430 hc         1 0ST       0.045033
     45 H17          3.7740     5.7750    -0.9210 hc         1 0ST       0.045033
     46 H18          4.7370     3.4910     1.8670 ha         1 0ST       0.117000
     47 H19         -1.5630     1.0360     0.3340 hn         1 0ST       0.306500
     48 H20         -3.4670    -0.9630    -0.5360 h1         1 0ST       0.061700
     49 H21         -3.4770    -0.8000     1.2350 h1         1 0ST       0.061700
     50 H22         -3.8640     1.6690     0.9730 h1         1 0ST       0.034200
     51 H23         -3.9600     1.4650    -0.7770 h1         1 0ST       0.034200
     52 H25         -6.0950     2.5660     1.2560 h1         1 0ST       0.041700
     53 H26         -6.2760     2.5780    -0.5040 h1         1 0ST       0.041700
     54 H27         -8.1410     1.1730     1.5100 h1         1 0ST       0.053200
     55 H28         -8.5130     2.6170     0.5380 h1         1 0ST       0.053200
     56 H29         -7.8900    -0.9980     0.3310 h1         1 0ST       0.053200
     57 H30         -8.0880    -1.0190    -1.4380 h1         1 0ST       0.053200
     58 H31         -5.9990     0.2540    -1.7590 h1         1 0ST       0.041700
     59 H32         -5.6710    -1.1660    -0.7580 h1         1 0ST       0.041700
@<TRIPOS>BOND
     1     1     2 2   
     2     2     3 1   
     3     2    20 1   
     4     3     4 1   
     5     3    29 1   
     6     4     5 2   
     7     4    12 1   
     8     5     6 1   
     9     5    30 1   
    10     6     7 1   
    11     6    11 2   
    12     7     8 1   
    13     7     9 1   
    14     7    10 1   
    15     8    31 1   
    16     8    32 1   
    17     8    33 1   
    18     9    34 1   
    19     9    35 1   
    20     9    36 1   
    21    10    37 1   
    22    10    38 1   
    23    10    39 1   
    24    11    12 1   
    25    12    13 1   
    26    13    14 ar  
    27    13    15 ar  
    28    14    19 ar  
    29    14    40 1   
    30    15    16 ar  
    31    15    41 1   
    32    16    17 ar  
    33    16    42 1   
    34    17    18 1   
    35    17    19 ar  
    36    18    43 1   
    37    18    44 1   
    38    18    45 1   
    39    19    46 1   
    40    20    21 1   
    41    20    47 1   
    42    21    22 1   
    43    21    48 1   
    44    21    49 1   
    45    22    23 1   
    46    22    50 1   
    47    22    51 1   
    48    23    24 1   
    49    23    28 1   
    50    24    25 1   
    51    24    52 1   
    52    24    53 1   
    53    25    26 1   
    54    25    54 1   
    55    25    55 1   
    56    26    27 1   
    57    27    28 1   
    58    27    56 1   
    59    27    57 1   
    60    28    58 1   
    61    28    59 1   
@<TRIPOS>SUBSTRUCTURE
     1 0ST         1 TEMP              0 ****  ****    0 ROOT
