@<TRIPOS>MOLECULE
0ST
   59    61     1     0     0
SMALL
abcg2


@<TRIPOS>ATOM
      1 O21         -1.0400    -2.0180    -0.1290 o          1 0ST      -0.606100
      2 C18         -0.8600    -0.8520     0.1830 c          1 0ST       0.666100
      3 N17          0.3980    -0.3160     0.3650 ns         1 0ST      -0.424100
      4 C11          1.5720    -1.0210     0.2130 cc         1 0ST       0.031600
      5 C12          1.8720    -2.3620     0.2540 cd         1 0ST      -0.230000
      6 C10          3.2760    -2.4170     0.1000 cd         1 0ST       0.280300
      7 C13          4.1340    -3.6550     0.0760 c3         1 0ST      -0.072300
      8 C16          3.6720    -4.5610    -1.0720 c3         1 0ST      -0.079433
      9 C15          5.6060    -3.3000    -0.1250 c3         1 0ST      -0.079433
     10 C14          3.9720    -4.4040     1.4040 c3         1 0ST      -0.079433
     11 N9           3.7890    -1.2140    -0.0240 nc         1 0ST      -0.512800
     12 N8           2.7460    -0.3640     0.0270 na         1 0ST       0.174000
     13 C4           2.9660     1.0260    -0.0760 ca         1 0ST       0.009800
     14 C2           3.9270     1.6300     0.7260 ca         1 0ST      -0.107000
     15 C6           2.2460     1.7880    -0.9880 ca         1 0ST      -0.107000
     16 C5           2.4760     3.1540    -1.0750 ca         1 0ST      -0.105000
     17 C3           3.4320     3.7790    -0.2790 ca         1 0ST      -0.072300
     18 C7           3.6610     5.2590    -0.3610 c3         1 0ST      -0.048800
     19 C1           4.1590     2.9910     0.6130 ca         1 0ST      -0.105000
     20 N19         -1.8620     0.0270     0.3930 ns         1 0ST      -0.524900
     21 C20         -3.2410    -0.3270     0.1360 c3         1 0ST       0.116000
     22 C22         -4.1430     0.8270     0.5540 c3         1 0ST       0.152800
     23 N23         -5.5330     0.5510     0.2590 n3         1 0ST      -0.715600
     24 C28         -6.4340     1.3420     1.0790 c6         1 0ST       0.126300
     25 C27         -7.8720     0.9710     0.7740 c6         1 0ST       0.153600
     26 O25         -8.1770     1.1530    -0.5910 os         1 0ST      -0.448000
     27 C24         -7.3090     0.3960    -1.4030 c6         1 0ST       0.153600
     28 C26         -5.8550     0.7460    -1.1450 c6         1 0ST       0.126300
     29 H1           0.4750     0.6490     0.6480 hn         1 0ST       0.322500
     30 H2           1.1880    -3.1800     0.3910 ha         1 0ST       0.168000
     31 H3           3.7550    -4.0530    -2.0350 hc         1 0ST       0.036589
     32 H4           4.2870    -5.4620    -1.1150 hc         1 0ST       0.036589
     33 H5           2.6340    -4.8740    -0.9470 hc         1 0ST       0.036589
     34 H6           5.9780    -2.6440     0.6630 hc         1 0ST       0.036589
     35 H7           6.2070    -4.2110    -0.1120 hc         1 0ST       0.036589
     36 H8           5.7750    -2.8020    -1.0810 hc         1 0ST       0.036589
     37 H9           2.9360    -4.6970     1.5810 hc         1 0ST       0.036589
     38 H10          4.5790    -5.3120     1.4010 hc         1 0ST       0.036589
     39 H11          4.2950    -3.7900     2.2470 hc         1 0ST       0.036589
     40 H12          4.4920     1.0350     1.4310 ha         1 0ST       0.132000
     41 H13          1.5220     1.3220    -1.6450 ha         1 0ST       0.132000
     42 H14          1.9100     3.7380    -1.7900 ha         1 0ST       0.117000
     43 H15          3.0550     5.7860     0.3800 hc         1 0ST       0.045033
     44 H16          4.7020     5.5140    -0.1650 hc         1 0ST       0.045033
     45 H17          3.3920     5.6540    -1.3400 hc         1 0ST       0.045033
     46 H18          4.9150     3.4490     1.2390 ha         1 0ST       0.117000
     47 H19         -1.6490     1.0040     0.5180 hn         1 0ST       0.306500
     48 H20         -3.3840    -0.5690    -0.9220 h1         1 0ST       0.061700
     49 H21         -3.5140    -1.2140     0.7090 h1         1 0ST       0.061700
     50 H22         -4.0400     0.9720     1.6330 h1         1 0ST       0.034200
     51 H23         -3.8030     1.7620     0.0770 h1         1 0ST       0.034200
     52 H25         -6.2360     1.1400     2.1350 h1         1 0ST       0.041700
     53 H26         -6.2910     2.4250     0.9220 h1         1 0ST       0.041700
     54 H27         -8.0470    -0.0730     1.0710 h1         1 0ST       0.053200
     55 H28         -8.5520     1.6010     1.3490 h1         1 0ST       0.053200
     56 H29         -7.4590    -0.6800    -1.2300 h1         1 0ST       0.053200
     57 H30         -7.5630     0.6070    -2.4420 h1         1 0ST       0.053200
     58 H31         -5.6620     1.7850    -1.4620 h1         1 0ST       0.041700
     59 H32         -5.2330     0.1010    -1.7680 h1         1 0ST       0.041700
@<TRIPOS>BOND
     1     1     2 2   
     2     2     3 1   
     3     2    20 1   
     4     3     4 1   
     5     3    29 1   
     6     4     5 2   
     7     4    12 1   
     8     5     6 1   
     9     5    30 1   
    10     6     7 1   
    11     6    11 2   
    12     7     8 1   
    13     7     9 1   
    14     7    10 1   
    15     8    31 1   
    16     8    32 1   
    17     8    33 1   
    18     9    34 1   
    19     9    35 1   
    20     9    36 1   
    21    10    37 1   
    22    10    38 1   
    23    10    39 1   
    24    11    12 1   
    25    12    13 1   
    26    13    14 ar  
    27    13    15 ar  
    28    14    19 ar  
    29    14    40 1   
    30    15    16 ar  
    31    15    41 1   
    32    16    17 ar  
    33    16    42 1   
    34    17    18 1   
    35    17    19 ar  
    36    18    43 1   
    37    18    44 1   
    38    18    45 1   
    39    19    46 1   
    40    20    21 1   
    41    20    47 1   
    42    21    22 1   
    43    21    48 1   
    44    21    49 1   
    45    22    23 1   
    46    22    50 1   
    47    22    51 1   
    48    23    24 1   
    49    23    28 1   
    50    24    25 1   
    51    24    52 1   
    52    24    53 1   
    53    25    26 1   
    54    25    54 1   
    55    25    55 1   
    56    26    27 1   
    57    27    28 1   
    58    27    56 1   
    59    27    57 1   
    60    28    58 1   
    61    28    59 1   
@<TRIPOS>SUBSTRUCTURE
     1 0ST         1 TEMP              0 ****  ****    0 ROOT
