@<TRIPOS>MOLECULE
0SU
   47    48     1     0     0
SMALL
abcg2


@<TRIPOS>ATOM
      1 O23         -2.5820    -1.9080    -0.4930 o          1 0SU      -0.615100
      2 C18         -2.4730    -0.7290    -0.1980 c          1 0SU       0.668100
      3 N19         -3.5140     0.1170    -0.0530 ns         1 0SU      -0.522900
      4 C20         -4.8840    -0.2710    -0.3010 c3         1 0SU       0.114000
      5 C21         -5.8230     0.4300     0.6550 c3         1 0SU       0.140600
      6 O22         -5.7070     1.8240     0.4580 oh         1 0SU      -0.671000
      7 N17         -1.2490    -0.1360     0.0330 ns         1 0SU      -0.423100
      8 C10         -0.0430    -0.7980    -0.0300 cc         1 0SU       0.033600
      9 C11          0.2980    -2.1310    -0.0250 cd         1 0SU      -0.235000
     10 C9           1.7110    -2.1370    -0.0380 cd         1 0SU       0.281300
     11 C12          2.6080    -3.3460    -0.0410 c3         1 0SU      -0.072300
     12 C15          2.3230    -4.1860     1.2100 c3         1 0SU      -0.079433
     13 C14          2.3130    -4.1850    -1.2900 c3         1 0SU      -0.079433
     14 C13          4.0810    -2.9400    -0.0460 c3         1 0SU      -0.079433
     15 N8           2.1930    -0.9150    -0.0490 nc         1 0SU      -0.513800
     16 N7           1.1210    -0.0990    -0.0620 na         1 0SU       0.172000
     17 C4           1.3040     1.3010    -0.0670 ca         1 0SU       0.008800
     18 C2           2.1310     1.8880     0.8850 ca         1 0SU      -0.106000
     19 C6           0.6800     2.0890    -1.0240 ca         1 0SU      -0.106000
     20 C5           0.8730     3.4650    -1.0140 ca         1 0SU      -0.105000
     21 C3           1.7010     4.0710    -0.0750 ca         1 0SU      -0.072300
     22 C16          1.9330     5.5530    -0.0780 c3         1 0SU      -0.048800
     23 C1           2.3280     3.2580     0.8700 ca         1 0SU      -0.105000
     24 H1          -3.3450     1.1010     0.0840 hn         1 0SU       0.321500
     25 H2          -5.1720    -0.0530    -1.3350 h1         1 0SU       0.063700
     26 H3          -4.9820    -1.3450    -0.1580 h1         1 0SU       0.063700
     27 H4          -6.8420     0.0750     0.4600 h1         1 0SU       0.033200
     28 H5          -5.5680     0.1450     1.6820 h1         1 0SU       0.033200
     29 H6          -6.1310     2.2720     1.1950 ho         1 0SU       0.448000
     30 H7          -1.2270     0.8310     0.3220 hn         1 0SU       0.324500
     31 H8          -0.3700    -2.9720     0.0010 ha         1 0SU       0.168000
     32 H9           1.2880    -4.5320     1.2380 hc         1 0SU       0.036144
     33 H10          2.9670    -5.0680     1.2280 hc         1 0SU       0.036144
     34 H11          2.5100    -3.6160     2.1220 hc         1 0SU       0.036144
     35 H12          2.4920    -3.6140    -2.2020 hc         1 0SU       0.036144
     36 H13          2.9580    -5.0660    -1.3140 hc         1 0SU       0.036144
     37 H14          1.2790    -4.5310    -1.3100 hc         1 0SU       0.036144
     38 H15          4.3440    -2.3510     0.8330 hc         1 0SU       0.036144
     39 H16          4.7050    -3.8360    -0.0460 hc         1 0SU       0.036144
     40 H17          4.3380    -2.3550    -0.9300 hc         1 0SU       0.036144
     41 H18          2.6150     1.2740     1.6330 ha         1 0SU       0.132500
     42 H19          0.0610     1.6370    -1.7890 ha         1 0SU       0.132500
     43 H20          0.3800     4.0680    -1.7660 ha         1 0SU       0.117500
     44 H21          1.7360     5.9870     0.9030 hc         1 0SU       0.045033
     45 H22          2.9700     5.7860    -0.3290 hc         1 0SU       0.045033
     46 H23          1.2960     6.0580    -0.8020 hc         1 0SU       0.045033
     47 H24          2.9750     3.7050     1.6150 ha         1 0SU       0.117500
@<TRIPOS>BOND
     1     1     2 2   
     2     2     3 1   
     3     2     7 1   
     4     3     4 1   
     5     3    24 1   
     6     4     5 1   
     7     4    25 1   
     8     4    26 1   
     9     5     6 1   
    10     5    27 1   
    11     5    28 1   
    12     6    29 1   
    13     7     8 1   
    14     7    30 1   
    15     8     9 2   
    16     8    16 1   
    17     9    10 1   
    18     9    31 1   
    19    10    11 1   
    20    10    15 2   
    21    11    12 1   
    22    11    13 1   
    23    11    14 1   
    24    12    32 1   
    25    12    33 1   
    26    12    34 1   
    27    13    35 1   
    28    13    36 1   
    29    13    37 1   
    30    14    38 1   
    31    14    39 1   
    32    14    40 1   
    33    15    16 1   
    34    16    17 1   
    35    17    18 ar  
    36    17    19 ar  
    37    18    23 ar  
    38    18    41 1   
    39    19    20 ar  
    40    19    42 1   
    41    20    21 ar  
    42    20    43 1   
    43    21    22 1   
    44    21    23 ar  
    45    22    44 1   
    46    22    45 1   
    47    22    46 1   
    48    23    47 1   
@<TRIPOS>SUBSTRUCTURE
     1 0SU         1 TEMP              0 ****  ****    0 ROOT
