@<TRIPOS>MOLECULE
0SU
   47    48     1     0     0
SMALL
No Charge or Current Charge


@<TRIPOS>ATOM
      1 O23         -2.7400    -1.7230    -0.4100 o          1 0SU      -0.615100
      2 C18         -2.5320    -0.5210    -0.3820 c          1 0SU       0.668100
      3 N19         -3.5360     0.4080    -0.4650 ns         1 0SU      -0.522900
      4 C20         -4.9680     0.0760    -0.5250 c3         1 0SU       0.114000
      5 C21         -5.5540    -0.3660     0.8390 c3         1 0SU       0.140600
      6 O22         -5.4380     0.6870     1.8130 oh         1 0SU      -0.671000
      7 N17         -1.2890     0.0550    -0.2760 ns         1 0SU      -0.423100
      8 C10         -0.0450    -0.5630    -0.1690 cc         1 0SU       0.033600
      9 C11          0.2580    -1.8910    -0.1080 cd         1 0SU      -0.235000
     10 C9           1.6680    -2.0120     0.0170 cd         1 0SU       0.281300
     11 C12          2.4400    -3.3290     0.1190 c3         1 0SU      -0.072300
     12 C15          1.9480    -4.1080     1.3670 c3         1 0SU      -0.079433
     13 C14          2.1690    -4.1730    -1.1540 c3         1 0SU      -0.079433
     14 C13          3.9760    -3.1070     0.2480 c3         1 0SU      -0.079433
     15 N8           2.2740    -0.8320     0.0360 nc         1 0SU      -0.513800
     16 N7           1.2070     0.0300    -0.0710 na         1 0SU       0.172000
     17 C4           1.4250     1.4080    -0.1360 ca         1 0SU       0.008800
     18 C2           2.0850     2.0730     0.9160 ca         1 0SU      -0.106000
     19 C6           0.9880     2.1480    -1.2530 ca         1 0SU      -0.106000
     20 C5           1.2010     3.5360    -1.3120 ca         1 0SU      -0.105000
     21 C3           1.8540     4.2010    -0.2570 ca         1 0SU      -0.072300
     22 C16          2.0890     5.7020    -0.3240 c3         1 0SU      -0.048800
     23 C1           2.2980     3.4620     0.8550 ca         1 0SU      -0.105000
     24 H1          -3.2770     1.3840    -0.4110 hn         1 0SU       0.321500
     25 H2          -5.5190     0.9540    -0.8870 h1         1 0SU       0.063700
     26 H3          -5.1150    -0.7300    -1.2560 h1         1 0SU       0.063700
     27 H4          -6.6090    -0.6360     0.6970 h1         1 0SU       0.033200
     28 H5          -5.0260    -1.2660     1.1840 h1         1 0SU       0.033200
     29 H6          -5.8050     0.3400     2.6570 ho         1 0SU       0.448000
     30 H7          -1.3000     1.0660    -0.2730 hn         1 0SU       0.324500
     31 H8          -0.4410    -2.7180    -0.1430 ha         1 0SU       0.168000
     32 H9           0.8780    -4.3350     1.2960 hc         1 0SU       0.036144
     33 H10          2.4860    -5.0590     1.4750 hc         1 0SU       0.036144
     34 H11          2.1100    -3.5210     2.2790 hc         1 0SU       0.036144
     35 H12          2.4900    -3.6330    -2.0540 hc         1 0SU       0.036144
     36 H13          2.7130    -5.1250    -1.1190 hc         1 0SU       0.036144
     37 H14          1.1020    -4.4000    -1.2600 hc         1 0SU       0.036144
     38 H15          4.2170    -2.5250     1.1460 hc         1 0SU       0.036144
     39 H16          4.5050    -4.0650     0.3190 hc         1 0SU       0.036144
     40 H17          4.3720    -2.5720    -0.6240 hc         1 0SU       0.036144
     41 H18          2.4310     1.5120     1.7820 ha         1 0SU       0.132500
     42 H19          0.4890     1.6460    -2.0800 ha         1 0SU       0.132500
     43 H20          0.8610     4.0950    -2.1820 ha         1 0SU       0.117500
     44 H21          2.1000     6.1500     0.6770 hc         1 0SU       0.045033
     45 H22          3.0490     5.9260    -0.8020 hc         1 0SU       0.045033
     46 H23          1.3020     6.2040    -0.9000 hc         1 0SU       0.045033
     47 H24          2.8090     3.9630     1.6750 ha         1 0SU       0.117500
@<TRIPOS>BOND
     1     1     2 2   
     2     2     3 1   
     3     2     7 1   
     4     3     4 1   
     5     3    24 1   
     6     4     5 1   
     7     4    25 1   
     8     4    26 1   
     9     5     6 1   
    10     5    27 1   
    11     5    28 1   
    12     6    29 1   
    13     7     8 1   
    14     7    30 1   
    15     8     9 2   
    16     8    16 1   
    17     9    10 1   
    18     9    31 1   
    19    10    11 1   
    20    10    15 2   
    21    11    12 1   
    22    11    13 1   
    23    11    14 1   
    24    12    32 1   
    25    12    33 1   
    26    12    34 1   
    27    13    35 1   
    28    13    36 1   
    29    13    37 1   
    30    14    38 1   
    31    14    39 1   
    32    14    40 1   
    33    15    16 1   
    34    16    17 1   
    35    17    18 ar  
    36    17    19 ar  
    37    18    23 ar  
    38    18    41 1   
    39    19    20 ar  
    40    19    42 1   
    41    20    21 ar  
    42    20    43 1   
    43    21    22 1   
    44    21    23 ar  
    45    22    44 1   
    46    22    45 1   
    47    22    46 1   
    48    23    47 1   
@<TRIPOS>SUBSTRUCTURE
     1 0SU         1 TEMP              0 ****  ****    0 ROOT
