@<TRIPOS>MOLECULE
0SV
   56    57     1     0     0
SMALL
No Charge or Current Charge


@<TRIPOS>ATOM
      1 O20         -1.3100    -2.3100    -0.1060 o          1 0SV      -0.612100
      2 C18         -1.2150    -1.0970    -0.0290 c          1 0SV       0.668100
      3 N19         -2.3060    -0.2700     0.0220 ns         1 0SV      -0.527900
      4 C21         -3.6890    -0.7440    -0.0110 c3         1 0SV       0.120000
      5 C22         -4.6910     0.4250     0.0530 c3         1 0SV      -0.095400
      6 C23         -6.1630    -0.0430     0.0210 c3         1 0SV      -0.073400
      7 C24         -7.1710     1.1270     0.0840 c3         1 0SV      -0.081400
      8 C25         -8.6390     0.6580     0.0520 c3         1 0SV       0.164600
      9 O26         -9.5100     1.7920     0.1140 oh         1 0SV      -0.662000
     10 N17         -0.0290    -0.4040     0.0150 ns         1 0SV      -0.421100
     11 C1           1.2730    -0.8990    -0.0110 cc         1 0SV       0.036600
     12 N5           2.4660    -0.1880     0.0250 na         1 0SV       0.169000
     13 N4           3.6160    -0.9420    -0.0000 nc         1 0SV      -0.512800
     14 C3           3.1280    -2.1750    -0.0420 cd         1 0SV       0.282300
     15 C12          4.0290    -3.4100    -0.0780 c3         1 0SV      -0.073300
     16 C15          3.7370    -4.2110    -1.3740 c3         1 0SV      -0.079433
     17 C14          5.5420    -3.0410    -0.0550 c3         1 0SV      -0.079433
     18 C13          3.7200    -4.2980     1.1560 c3         1 0SV      -0.079433
     19 C2           1.7070    -2.1910    -0.0510 cd         1 0SV      -0.238000
     20 C6           2.5430     1.2070     0.0260 ca         1 0SV       0.009800
     21 C11          1.9450     1.9550    -1.0070 ca         1 0SV      -0.107000
     22 C9           2.0160     3.3590    -1.0000 ca         1 0SV      -0.105000
     23 C7           2.6890     4.0310     0.0380 ca         1 0SV      -0.072300
     24 C16          2.7630     5.5500     0.0470 c3         1 0SV      -0.048800
     25 C8           3.2890     3.2850     1.0690 ca         1 0SV      -0.105000
     26 C10          3.2180     1.8810     1.0630 ca         1 0SV      -0.107000
     27 H1          -2.1410     0.7250     0.0850 hn         1 0SV       0.312500
     28 H2          -3.8480    -1.3150    -0.9360 h1         1 0SV       0.053200
     29 H3          -3.8540    -1.4170     0.8420 h1         1 0SV       0.053200
     30 H4          -4.5140     0.9990     0.9710 hc         1 0SV       0.045200
     31 H5          -4.5080     1.1010    -0.7920 hc         1 0SV       0.045200
     32 H6          -6.3380    -0.6190    -0.8970 hc         1 0SV       0.043200
     33 H7          -6.3440    -0.7210     0.8640 hc         1 0SV       0.043200
     34 H8          -6.9980     1.7030     1.0020 hc         1 0SV       0.053200
     35 H9          -6.9920     1.8040    -0.7600 hc         1 0SV       0.053200
     36 H10         -8.8180     0.0910    -0.8710 h1         1 0SV       0.016700
     37 H11         -8.8250    -0.0110     0.9030 h1         1 0SV       0.016700
     38 H12        -10.4300     1.4460     0.0910 ho         1 0SV       0.444000
     39 H13         -0.1370     0.5990     0.0770 hn         1 0SV       0.322500
     40 H14          3.9290    -3.5960    -2.2620 hc         1 0SV       0.036256
     41 H15          4.3720    -5.1040    -1.4360 hc         1 0SV       0.036256
     42 H16          2.6920    -4.5400    -1.4110 hc         1 0SV       0.036256
     43 H17          5.7990    -2.4840     0.8550 hc         1 0SV       0.036256
     44 H18          6.1660    -3.9430    -0.0810 hc         1 0SV       0.036256
     45 H19          5.8110    -2.4250    -0.9210 hc         1 0SV       0.036256
     46 H20          2.6740    -4.6280     1.1550 hc         1 0SV       0.036256
     47 H21          4.3540    -5.1930     1.1660 hc         1 0SV       0.036256
     48 H22          3.8980    -3.7450     2.0860 hc         1 0SV       0.036256
     49 H23          1.0910    -3.0800    -0.0820 ha         1 0SV       0.170000
     50 H24          1.4290     1.4480    -1.8210 ha         1 0SV       0.132500
     51 H25          1.5490     3.9250    -1.8030 ha         1 0SV       0.117000
     52 H26          1.9080     5.9790     0.5820 hc         1 0SV       0.045367
     53 H27          3.6780     5.9040     0.5380 hc         1 0SV       0.045367
     54 H28          2.7590     5.9570    -0.9710 hc         1 0SV       0.045367
     55 H29          3.8110     3.7920     1.8780 ha         1 0SV       0.117000
     56 H30          3.6850     1.3140     1.8660 ha         1 0SV       0.132500
@<TRIPOS>BOND
     1     1     2 2   
     2     2     3 1   
     3     2    10 1   
     4     3     4 1   
     5     3    27 1   
     6     4     5 1   
     7     4    28 1   
     8     4    29 1   
     9     5     6 1   
    10     5    30 1   
    11     5    31 1   
    12     6     7 1   
    13     6    32 1   
    14     6    33 1   
    15     7     8 1   
    16     7    34 1   
    17     7    35 1   
    18     8     9 1   
    19     8    36 1   
    20     8    37 1   
    21     9    38 1   
    22    10    11 1   
    23    10    39 1   
    24    11    12 1   
    25    11    19 2   
    26    12    13 1   
    27    12    20 1   
    28    13    14 2   
    29    14    15 1   
    30    14    19 1   
    31    15    16 1   
    32    15    17 1   
    33    15    18 1   
    34    16    40 1   
    35    16    41 1   
    36    16    42 1   
    37    17    43 1   
    38    17    44 1   
    39    17    45 1   
    40    18    46 1   
    41    18    47 1   
    42    18    48 1   
    43    19    49 1   
    44    20    21 ar  
    45    20    26 ar  
    46    21    22 ar  
    47    21    50 1   
    48    22    23 ar  
    49    22    51 1   
    50    23    24 1   
    51    23    25 ar  
    52    24    52 1   
    53    24    53 1   
    54    24    54 1   
    55    25    26 ar  
    56    25    55 1   
    57    26    56 1   
@<TRIPOS>SUBSTRUCTURE
     1 0SV         1 TEMP              0 ****  ****    0 ROOT
