@<TRIPOS>MOLECULE
0SV
   56    57     1     0     0
SMALL
bcc


@<TRIPOS>ATOM
      1 O20         -1.3170    -2.1380    -0.2290 o          1 0SV      -0.612100
      2 C18         -1.2310    -0.9300    -0.0730 c          1 0SV       0.802100
      3 N19         -2.3010    -0.1170     0.0210 ns         1 0SV      -0.594900
      4 C21         -3.6500    -0.6420     0.0000 c3         1 0SV       0.120000
      5 C22         -4.6700     0.4840     0.0290 c3         1 0SV      -0.095400
      6 C23         -6.0930    -0.0580     0.0250 c3         1 0SV      -0.073400
      7 C24         -7.1490     1.0380     0.0390 c3         1 0SV      -0.081400
      8 C25         -8.5530     0.4650     0.0420 c3         1 0SV       0.141400
      9 O26         -9.4870     1.5240     0.0490 oh         1 0SV      -0.599800
     10 N17         -0.0180    -0.2780     0.0190 ns         1 0SV      -0.488100
     11 C1           1.2050    -0.9080    -0.0370 cc         1 0SV       0.087300
     12 N5           2.3500    -0.1780    -0.0550 na         1 0SV       0.118300
     13 N4           3.4460    -0.9650    -0.0470 nc         1 0SV      -0.512800
     14 C3           2.9960    -2.1980    -0.0490 cd         1 0SV       0.347600
     15 C12          3.9230    -3.3840    -0.0610 c3         1 0SV      -0.073300
     16 C15          3.6690    -4.2060    -1.3300 c3         1 0SV      -0.079433
     17 C14          5.3850    -2.9430    -0.0340 c3         1 0SV      -0.079433
     18 C13          3.6390    -4.2550     1.1690 c3         1 0SV      -0.079433
     19 C2           1.5830    -2.2320    -0.0430 cd         1 0SV      -0.321300
     20 C6           2.4940     1.2260    -0.0280 ca         1 0SV       0.009800
     21 C11          1.8760     2.0160    -0.9890 ca         1 0SV      -0.125000
     22 C9           2.0220     3.3960    -0.9420 ca         1 0SV      -0.123000
     23 C7           2.7960     4.0070     0.0390 ca         1 0SV      -0.072300
     24 C16          2.9400     5.4990     0.1010 c3         1 0SV      -0.048800
     25 C8           3.4270     3.1930     0.9810 ca         1 0SV      -0.123000
     26 C10          3.2750     1.8170     0.9590 ca         1 0SV      -0.125000
     27 H1          -2.1790     0.8740     0.1480 hn         1 0SV       0.312500
     28 H2          -3.7990    -1.2460    -0.8980 h1         1 0SV       0.053200
     29 H3          -3.8100    -1.3040     0.8570 h1         1 0SV       0.053200
     30 H4          -4.5160     1.1010     0.9210 hc         1 0SV       0.045200
     31 H5          -4.5210     1.1390    -0.8350 hc         1 0SV       0.045200
     32 H6          -6.2340    -0.6920    -0.8570 hc         1 0SV       0.043200
     33 H7          -6.2310    -0.7120     0.8920 hc         1 0SV       0.043200
     34 H8          -7.0130     1.6700     0.9230 hc         1 0SV       0.053200
     35 H9          -7.0210     1.6850    -0.8350 hc         1 0SV       0.053200
     36 H10         -8.6810    -0.1770    -0.8400 h1         1 0SV       0.016700
     37 H11         -8.6750    -0.1830     0.9210 h1         1 0SV       0.016700
     38 H12        -10.3700     1.1440     0.0510 ho         1 0SV       0.405000
     39 H13         -0.0170     0.7140     0.2050 hn         1 0SV       0.322500
     40 H14          3.8430    -3.6120    -2.2290 hc         1 0SV       0.036256
     41 H15          4.3380    -5.0690    -1.3620 hc         1 0SV       0.036256
     42 H16          2.6450    -4.5800    -1.3700 hc         1 0SV       0.036256
     43 H17          5.6210    -2.3720     0.8650 hc         1 0SV       0.036256
     44 H18          6.0300    -3.8230    -0.0490 hc         1 0SV       0.036256
     45 H19          5.6410    -2.3270    -0.8970 hc         1 0SV       0.036256
     46 H20          2.6140    -4.6280     1.1730 hc         1 0SV       0.036256
     47 H21          4.3060    -5.1200     1.1830 hc         1 0SV       0.036256
     48 H22          3.7940    -3.6960     2.0940 hc         1 0SV       0.036256
     49 H23          0.9390    -3.0910    -0.0330 ha         1 0SV       0.188000
     50 H24          1.3010     1.5610    -1.7850 ha         1 0SV       0.150500
     51 H25          1.5340     4.0010    -1.6960 ha         1 0SV       0.135000
     52 H26          2.3360     5.9140     0.9110 hc         1 0SV       0.045367
     53 H27          3.9730     5.7930     0.2900 hc         1 0SV       0.045367
     54 H28          2.6160     5.9720    -0.8250 hc         1 0SV       0.045367
     55 H29          4.0390     3.6430     1.7530 ha         1 0SV       0.135000
     56 H30          3.7590     1.2010     1.7060 ha         1 0SV       0.150500
@<TRIPOS>BOND
     1     1     2 2   
     2     2     3 1   
     3     2    10 1   
     4     3     4 1   
     5     3    27 1   
     6     4     5 1   
     7     4    28 1   
     8     4    29 1   
     9     5     6 1   
    10     5    30 1   
    11     5    31 1   
    12     6     7 1   
    13     6    32 1   
    14     6    33 1   
    15     7     8 1   
    16     7    34 1   
    17     7    35 1   
    18     8     9 1   
    19     8    36 1   
    20     8    37 1   
    21     9    38 1   
    22    10    11 1   
    23    10    39 1   
    24    11    12 1   
    25    11    19 2   
    26    12    13 1   
    27    12    20 1   
    28    13    14 2   
    29    14    15 1   
    30    14    19 1   
    31    15    16 1   
    32    15    17 1   
    33    15    18 1   
    34    16    40 1   
    35    16    41 1   
    36    16    42 1   
    37    17    43 1   
    38    17    44 1   
    39    17    45 1   
    40    18    46 1   
    41    18    47 1   
    42    18    48 1   
    43    19    49 1   
    44    20    21 ar  
    45    20    26 ar  
    46    21    22 ar  
    47    21    50 1   
    48    22    23 ar  
    49    22    51 1   
    50    23    24 1   
    51    23    25 ar  
    52    24    52 1   
    53    24    53 1   
    54    24    54 1   
    55    25    26 ar  
    56    25    55 1   
    57    26    56 1   
@<TRIPOS>SUBSTRUCTURE
     1 0SV         1 TEMP              0 ****  ****    0 ROOT
