@<TRIPOS>MOLECULE
0SW
   34    36     1     0     0
SMALL
abcg2


@<TRIPOS>ATOM
      1 N11         -0.2450     0.5020     0.0030 nu         1 0SW      -0.927100
      2 C10         -1.3270    -0.2790     0.0020 ca         1 0SW       0.404900
      3 C2          -2.6590     0.2770     0.0040 ca         1 0SW      -0.178000
      4 C4          -2.9530     1.6520     0.0120 ca         1 0SW      -0.073000
      5 C6          -4.2560     2.0830     0.0150 ca         1 0SW      -0.128000
      6 C5          -5.3060     1.1500     0.0090 ca         1 0SW      -0.083000
      7 C3          -5.0410    -0.1960     0.0000 ca         1 0SW      -0.098000
      8 N8          -1.1440    -1.5880    -0.0030 nb         1 0SW      -0.294000
      9 C7          -2.2330    -2.3670    -0.0110 ca         1 0SW       0.171900
     10 N9          -3.4830    -2.0050    -0.0110 nb         1 0SW      -0.215000
     11 C1          -3.7110    -0.6610    -0.0020 ca         1 0SW       0.053000
     12 C12          1.1050    -0.0210     0.0110 c3         1 0SW       0.232800
     13 C13          2.1150     1.1200     0.0040 c3         1 0SW      -0.050100
     14 C14          3.5190     0.5850     0.0060 ca         1 0SW      -0.084300
     15 C19          4.1710     0.3020     1.2040 ca         1 0SW      -0.103000
     16 C18          5.4520    -0.2340     1.2080 ca         1 0SW      -0.108000
     17 C16          6.1000    -0.4990     0.0090 ca         1 0SW      -0.106000
     18 C15          5.4600    -0.2210    -1.1920 ca         1 0SW      -0.108000
     19 C17          4.1800     0.3160    -1.1910 ca         1 0SW      -0.103000
     20 H1          -0.3570     1.5010     0.0280 hn         1 0SW       0.495000
     21 H2          -2.1640     2.3930     0.0150 ha         1 0SW       0.102000
     22 H3          -4.4740     3.1430     0.0210 ha         1 0SW       0.115000
     23 H4          -6.3320     1.4970     0.0100 ha         1 0SW       0.116000
     24 H5          -5.8410    -0.9240    -0.0040 ha         1 0SW       0.134000
     25 H6          -2.0340    -3.4350    -0.0170 h5         1 0SW       0.042100
     26 H7           1.2570    -0.6490     0.8930 h1         1 0SW       0.062700
     27 H8           1.2590    -0.6620    -0.8610 h1         1 0SW       0.062700
     28 H9           1.9540     1.7450    -0.8790 hc         1 0SW       0.050200
     29 H10          1.9550     1.7560     0.8790 hc         1 0SW       0.050200
     30 H11          3.6750     0.5090     2.1450 ha         1 0SW       0.111500
     31 H12          5.9440    -0.4430     2.1490 ha         1 0SW       0.114000
     32 H13          7.0980    -0.9180     0.0100 ha         1 0SW       0.114000
     33 H14          5.9580    -0.4200    -2.1320 ha         1 0SW       0.114000
     34 H15          3.6900     0.5340    -2.1320 ha         1 0SW       0.111500
@<TRIPOS>BOND
     1     1     2 1   
     2     1    12 1   
     3     1    20 1   
     4     2     3 ar  
     5     2     8 ar  
     6     3     4 ar  
     7     3    11 ar  
     8     4     5 ar  
     9     4    21 1   
    10     5     6 ar  
    11     5    22 1   
    12     6     7 ar  
    13     6    23 1   
    14     7    11 ar  
    15     7    24 1   
    16     8     9 ar  
    17     9    10 ar  
    18     9    25 1   
    19    10    11 ar  
    20    12    13 1   
    21    12    26 1   
    22    12    27 1   
    23    13    14 1   
    24    13    28 1   
    25    13    29 1   
    26    14    15 ar  
    27    14    19 ar  
    28    15    16 ar  
    29    15    30 1   
    30    16    17 ar  
    31    16    31 1   
    32    17    18 ar  
    33    17    32 1   
    34    18    19 ar  
    35    18    33 1   
    36    19    34 1   
@<TRIPOS>SUBSTRUCTURE
     1 0SW         1 TEMP              0 ****  ****    0 ROOT
