@<TRIPOS>MOLECULE
0SW
   34    36     1     0     0
SMALL
No Charge or Current Charge


@<TRIPOS>ATOM
      1 N11         -0.2670     0.3770     0.0070 nu         1 0SW      -0.927100
      2 C10         -1.4370    -0.3830     0.0020 ca         1 0SW       0.404900
      3 C2          -2.7240     0.2070     0.0040 ca         1 0SW      -0.178000
      4 C4          -2.9270     1.6070     0.0100 ca         1 0SW      -0.073000
      5 C6          -4.2310     2.1300     0.0110 ca         1 0SW      -0.128000
      6 C5          -5.3360     1.2660     0.0070 ca         1 0SW      -0.083000
      7 C3          -5.1390    -0.1250     0.0010 ca         1 0SW      -0.098000
      8 N8          -1.2740    -1.7180    -0.0030 nb         1 0SW      -0.294000
      9 C7          -2.3950    -2.4620    -0.0080 ca         1 0SW       0.171900
     10 N9          -3.6630    -2.0050    -0.0060 nb         1 0SW      -0.215000
     11 C1          -3.8410    -0.6680    -0.0010 ca         1 0SW       0.053000
     12 C12          1.1220    -0.1200     0.0050 c3         1 0SW       0.232800
     13 C13          2.1260     1.0490     0.0110 c3         1 0SW      -0.050100
     14 C14          3.5690     0.5610     0.0100 ca         1 0SW      -0.084300
     15 C19          4.2390     0.3220     1.2260 ca         1 0SW      -0.103000
     16 C18          5.5680    -0.1350     1.2250 ca         1 0SW      -0.108000
     17 C16          6.2350    -0.3570     0.0080 ca         1 0SW      -0.106000
     18 C15          5.5710    -0.1220    -1.2080 ca         1 0SW      -0.108000
     19 C17          4.2410     0.3350    -1.2070 ca         1 0SW      -0.103000
     20 H1          -0.4010     1.3860     0.0110 hn         1 0SW       0.495000
     21 H2          -2.0900     2.3000     0.0140 ha         1 0SW       0.102000
     22 H3          -4.3840     3.2070     0.0160 ha         1 0SW       0.115000
     23 H4          -6.3450     1.6720     0.0080 ha         1 0SW       0.116000
     24 H5          -6.0020    -0.7880    -0.0030 ha         1 0SW       0.134000
     25 H6          -2.2650    -3.5430    -0.0120 h5         1 0SW       0.042100
     26 H7           1.3000    -0.7480     0.8900 h1         1 0SW       0.062700
     27 H8           1.3010    -0.7400    -0.8850 h1         1 0SW       0.062700
     28 H9           1.9440     1.6840    -0.8650 hc         1 0SW       0.050200
     29 H10          1.9430     1.6770     0.8920 hc         1 0SW       0.050200
     30 H11          3.7300     0.4900     2.1730 ha         1 0SW       0.111500
     31 H12          6.0810    -0.3170     2.1670 ha         1 0SW       0.114000
     32 H13          7.2640    -0.7110     0.0070 ha         1 0SW       0.114000
     33 H14          6.0850    -0.2950    -2.1510 ha         1 0SW       0.114000
     34 H15          3.7340     0.5120    -2.1530 ha         1 0SW       0.111500
@<TRIPOS>BOND
     1     1     2 1   
     2     1    12 1   
     3     1    20 1   
     4     2     3 ar  
     5     2     8 ar  
     6     3     4 ar  
     7     3    11 ar  
     8     4     5 ar  
     9     4    21 1   
    10     5     6 ar  
    11     5    22 1   
    12     6     7 ar  
    13     6    23 1   
    14     7    11 ar  
    15     7    24 1   
    16     8     9 ar  
    17     9    10 ar  
    18     9    25 1   
    19    10    11 ar  
    20    12    13 1   
    21    12    26 1   
    22    12    27 1   
    23    13    14 1   
    24    13    28 1   
    25    13    29 1   
    26    14    15 ar  
    27    14    19 ar  
    28    15    16 ar  
    29    15    30 1   
    30    16    17 ar  
    31    16    31 1   
    32    17    18 ar  
    33    17    32 1   
    34    18    19 ar  
    35    18    33 1   
    36    19    34 1   
@<TRIPOS>SUBSTRUCTURE
     1 0SW         1 TEMP              0 ****  ****    0 ROOT
