@<TRIPOS>MOLECULE
0SX
   32    35     1     0     0
SMALL
No Charge or Current Charge


@<TRIPOS>ATOM
      1 CAH          3.2300    -2.2570    -0.3910 c5         1 0SX      -0.078400
      2 CAF          4.7310    -2.5870    -0.2360 c5         1 0SX      -0.078400
      3 CAG          5.1500    -1.4070     0.6610 c5         1 0SX       0.153800
      4 NAJ          4.5600    -0.2370    -0.0300 n7         1 0SX      -0.837400
      5 CAT          3.2640    -0.7160    -0.6390 c5         1 0SX       0.128200
      6 CAN          2.0070    -0.0400    -0.0720 cc         1 0SX       0.486900
      7 NAI          0.8230    -0.2430    -0.6740 nd         1 0SX      -0.553300
      8 CAR         -0.2530     0.4070    -0.0780 cd         1 0SX       0.161400
      9 CAQ         -1.6210     0.3990    -0.4590 ca         1 0SX      -0.106800
     10 CAE         -2.3190    -0.2260    -1.4990 ca         1 0SX      -0.022000
     11 CAM         -3.7100     0.0000    -1.5650 ca         1 0SX       0.086000
     12 Cl          -4.6570    -0.7500    -2.8440 cl         1 0SX      -0.196000
     13 CAC         -4.3520     0.8280    -0.6100 ca         1 0SX      -0.070000
     14 CAD         -3.6090     1.4410     0.4260 ca         1 0SX      -0.104000
     15 CAP         -2.2290     1.2050     0.4760 ca         1 0SX       0.083100
     16 OAL         -1.3470     1.7200     1.4170 os         1 0SX      -0.121200
     17 CAS         -0.1110     1.1930     1.0320 cc         1 0SX      -0.113100
     18 CAO          1.1660     1.4230     1.6870 c          1 0SX       0.599200
     19 OAA          1.3560     2.1150     2.6760 o          1 0SX      -0.513000
     20 NAK          2.1560     0.7550     1.0460 ns         1 0SX      -0.421400
     21 H1           2.7570    -2.8030    -1.2150 hc         1 0SX       0.054700
     22 H2           2.6780    -2.5070     0.5240 hc         1 0SX       0.054700
     23 H3           4.9060    -3.5600     0.2380 hc         1 0SX       0.055700
     24 H4           5.2580    -2.5800    -1.1970 hc         1 0SX       0.055700
     25 H5           4.7250    -1.5120     1.6700 h1         1 0SX       0.040200
     26 H6           6.2410    -1.3170     0.7600 h1         1 0SX       0.040200
     27 H7           5.1910     0.0260    -0.8000 hn         1 0SX       0.428000
     28 H9           3.3010    -0.5200    -1.7200 h1         1 0SX       0.031700
     29 H10         -1.8120    -0.8580    -2.2230 ha         1 0SX       0.151000
     30 H11         -5.4250     0.9920    -0.6750 ha         1 0SX       0.134000
     31 H12         -4.0920     2.0770     1.1640 ha         1 0SX       0.141000
     32 H13          3.0910     0.8600     1.4150 hn         1 0SX       0.330500
@<TRIPOS>BOND
     1     1     2 1   
     2     1     5 1   
     3     1    21 1   
     4     1    22 1   
     5     2     3 1   
     6     2    23 1   
     7     2    24 1   
     8     3     4 1   
     9     3    25 1   
    10     3    26 1   
    11     4     5 1   
    12     4    27 1   
    13     5     6 1   
    14     5    28 1   
    15     6     7 2   
    16     6    20 1   
    17     7     8 1   
    18     8     9 1   
    19     8    17 2   
    20     9    10 ar  
    21     9    15 ar  
    22    10    11 ar  
    23    10    29 1   
    24    11    12 1   
    25    11    13 ar  
    26    13    14 ar  
    27    13    30 1   
    28    14    15 ar  
    29    14    31 1   
    30    15    16 1   
    31    16    17 1   
    32    17    18 1   
    33    18    19 2   
    34    18    20 1   
    35    20    32 1   
@<TRIPOS>SUBSTRUCTURE
     1 0SX         1 TEMP              0 ****  ****    0 ROOT
