@<TRIPOS>MOLECULE
0SX
   32    35     1     0     0
SMALL
abcg2


@<TRIPOS>ATOM
      1 CAH          4.1000    -0.8290    -1.0240 c5         1 0SX      -0.078400
      2 CAF          4.6400    -2.2700    -0.9780 c5         1 0SX      -0.078400
      3 CAG          4.3690    -2.7230     0.4540 c5         1 0SX       0.153800
      4 NAJ          3.1530    -2.0010     0.7870 n7         1 0SX      -0.837400
      5 CAT          3.3770    -0.6500     0.3370 c5         1 0SX       0.128200
      6 CAN          2.1060     0.1370     0.2030 cc         1 0SX       0.486900
      7 NAI          0.9430    -0.4250     0.2550 nd         1 0SX      -0.553300
      8 CAR         -0.1030     0.4190     0.0880 cd         1 0SX       0.161400
      9 CAQ         -1.5150     0.1530     0.0920 ca         1 0SX      -0.106800
     10 CAE         -2.2960    -0.9880     0.2570 ca         1 0SX      -0.022000
     11 CAM         -3.6640    -0.8240     0.1910 ca         1 0SX       0.086000
     12 CL          -4.6910    -2.2060     0.3910 cl         1 0SX      -0.196000
     13 CAC         -4.2600     0.4240    -0.0300 ca         1 0SX      -0.070000
     14 CAD         -3.4880     1.5600    -0.1940 ca         1 0SX      -0.104000
     15 CAP         -2.1160     1.3950    -0.1280 ca         1 0SX       0.083100
     16 OAL         -1.1910     2.3750    -0.2610 os         1 0SX      -0.121200
     17 CAS          0.0080     1.7650    -0.1280 cc         1 0SX      -0.113100
     18 CAO          1.2760     2.4200    -0.1890 c          1 0SX       0.599200
     19 OAA          1.5100     3.6000    -0.3680 o          1 0SX      -0.513000
     20 NAK          2.2780     1.4740     0.0000 ns         1 0SX      -0.421400
     21 H1           4.8940    -0.0910    -1.1330 hc         1 0SX       0.054700
     22 H2           3.4120    -0.6930    -1.8590 hc         1 0SX       0.054700
     23 H3           4.0950    -2.9000    -1.6820 hc         1 0SX       0.055700
     24 H4           5.6970    -2.3300    -1.2340 hc         1 0SX       0.055700
     25 H5           4.2190    -3.8000     0.5420 h1         1 0SX       0.040200
     26 H6           5.2160    -2.4530     1.1010 h1         1 0SX       0.040200
     27 H7           2.9400    -2.0380     1.7760 hn         1 0SX       0.428000
     28 H9           4.0440    -0.0870     1.0110 h1         1 0SX       0.031700
     29 H10         -1.8460    -1.9560     0.4320 ha         1 0SX       0.151000
     30 H11         -5.3370     0.5030    -0.0720 ha         1 0SX       0.134000
     31 H12         -3.9450     2.5250    -0.3650 ha         1 0SX       0.141000
     32 H13          3.2260     1.8340    -0.0060 hn         1 0SX       0.330500
@<TRIPOS>BOND
     1     1     2 1   
     2     1     5 1   
     3     1    21 1   
     4     1    22 1   
     5     2     3 1   
     6     2    23 1   
     7     2    24 1   
     8     3     4 1   
     9     3    25 1   
    10     3    26 1   
    11     4     5 1   
    12     4    27 1   
    13     5     6 1   
    14     5    28 1   
    15     6     7 2   
    16     6    20 1   
    17     7     8 1   
    18     8     9 1   
    19     8    17 2   
    20     9    10 ar  
    21     9    15 ar  
    22    10    11 ar  
    23    10    29 1   
    24    11    12 1   
    25    11    13 ar  
    26    13    14 ar  
    27    13    30 1   
    28    14    15 ar  
    29    14    31 1   
    30    15    16 1   
    31    16    17 1   
    32    17    18 1   
    33    18    19 2   
    34    18    20 1   
    35    20    32 1   
@<TRIPOS>SUBSTRUCTURE
     1 0SX         1 TEMP              0 ****  ****    0 ROOT
