@<TRIPOS>MOLECULE
0SY
   27    29     1     0     0
SMALL
abcg2


@<TRIPOS>ATOM
      1 CAF          0.3540     1.0130    -0.0360 cc         1 0SY      -0.069000
      2 CAO          1.6440     0.4400     0.0020 cc         1 0SY      -0.233600
      3 CAL          2.9650     1.0650     0.0270 c          1 0SY       0.605600
      4 OAA          3.1360     2.2750     0.1270 o          1 0SY      -0.559000
      5 NAJ          3.9880     0.1770    -0.0230 ns         1 0SY      -0.511900
      6 CAG          3.8340    -1.2080    -0.4430 c6         1 0SY       0.117000
      7 CAH          2.6310    -1.8690     0.2210 c6         1 0SY      -0.026100
      8 CAP          1.4920    -0.9270     0.0980 cd         1 0SY      -0.122300
      9 NAK          0.1770    -1.1950     0.1160 na         1 0SY      -0.081000
     10 CAN         -0.5490    -0.0250     0.0300 cd         1 0SY      -0.153000
     11 CAM         -2.0000    -0.0020     0.0090 ca         1 0SY       0.044000
     12 CAD         -2.7760    -1.1640     0.0280 ca         1 0SY      -0.168000
     13 CAB         -4.1570    -1.0600     0.0040 ca         1 0SY       0.341900
     14 NAI         -4.8140     0.0930    -0.0370 nb         1 0SY      -0.665000
     15 CAC         -4.0770     1.2010    -0.0550 ca         1 0SY       0.341900
     16 CAE         -2.6960     1.2100    -0.0330 ca         1 0SY      -0.168000
     17 H1           0.1210     2.0630    -0.1130 ha         1 0SY       0.151000
     18 H2           4.9170     0.5690    -0.0770 hn         1 0SY       0.315500
     19 H3           3.7210    -1.2680    -1.5310 h1         1 0SY       0.044200
     20 H4           2.4270    -2.8270    -0.2590 hc         1 0SY       0.062700
     21 H5          -0.2090    -2.1230     0.1850 hn         1 0SY       0.348000
     22 H6          -2.3380    -2.1530     0.0590 ha         1 0SY       0.119000
     23 H7          -4.7590    -1.9610     0.0180 h4         1 0SY       0.019100
     24 H8          -4.6170     2.1410    -0.0880 h4         1 0SY       0.019100
     25 H9          -2.1740     2.1570    -0.0480 ha         1 0SY       0.119000
     26 H10          4.7450    -1.7410    -0.1800 h1         1 0SY       0.044200
     27 H11          2.8390    -2.0720     1.2760 hc         1 0SY       0.062700
@<TRIPOS>BOND
     1     1     2 1   
     2     1    10 2   
     3     1    17 1   
     4     2     3 1   
     5     2     8 2   
     6     3     4 2   
     7     3     5 1   
     8     5     6 1   
     9     5    18 1   
    10     6     7 1   
    11     6    19 1   
    12     6    26 1   
    13     7     8 1   
    14     7    20 1   
    15     7    27 1   
    16     8     9 1   
    17     9    10 1   
    18     9    21 1   
    19    10    11 1   
    20    11    12 ar  
    21    11    16 ar  
    22    12    13 ar  
    23    12    22 1   
    24    13    14 ar  
    25    13    23 1   
    26    14    15 ar  
    27    15    16 ar  
    28    15    24 1   
    29    16    25 1   
@<TRIPOS>SUBSTRUCTURE
     1 0SY         1 TEMP              0 ****  ****    0 ROOT
