@<TRIPOS>MOLECULE
0SY
   27    29     1     0     0
SMALL
No Charge or Current Charge


@<TRIPOS>ATOM
      1 CAF          0.3280     0.9130    -0.0250 cc         1 0SY      -0.069000
      2 CAO          1.6230     0.3600    -0.0120 cc         1 0SY      -0.233600
      3 CAL          2.9120     1.0850    -0.0220 c          1 0SY       0.605600
      4 OAA          3.0230     2.2990     0.0350 o          1 0SY      -0.559000
      5 NAJ          4.0180     0.2670    -0.1210 ns         1 0SY      -0.511900
      6 CAG          3.9990    -1.1950    -0.3550 c6         1 0SY       0.117000
      7 CAH          2.7190    -1.9050     0.1630 c6         1 0SY      -0.026100
      8 CAP          1.5250    -0.9960     0.0390 cd         1 0SY      -0.122300
      9 NAK          0.1590    -1.2990     0.0540 na         1 0SY      -0.081000
     10 CAN         -0.5910    -0.1080     0.0080 cd         1 0SY      -0.153000
     11 CAM         -2.0620    -0.0050     0.0090 ca         1 0SY       0.044000
     12 CAD         -2.8750    -1.1540     0.0460 ca         1 0SY      -0.168000
     13 CAB         -4.2730    -1.0140     0.0450 ca         1 0SY       0.341900
     14 NAI         -4.8940     0.1860     0.0090 nb         1 0SY      -0.665000
     15 CAC         -4.1170     1.2920    -0.0270 ca         1 0SY       0.341900
     16 CAE         -2.7130     1.2420    -0.0290 ca         1 0SY      -0.168000
     17 H1           0.1210     1.9790    -0.0570 ha         1 0SY       0.151000
     18 H2           4.9130     0.7400    -0.1200 hn         1 0SY       0.315500
     19 H3           4.0710    -1.3510    -1.4410 h1         1 0SY       0.044200
     20 H4           2.5670    -2.8480    -0.3790 hc         1 0SY       0.062700
     21 H5          -0.2280    -2.2360     0.1040 hn         1 0SY       0.348000
     22 H6          -2.4460    -2.1500     0.0760 ha         1 0SY       0.119000
     23 H7          -4.9170    -1.8920     0.0740 h4         1 0SY       0.019100
     24 H8          -4.6360     2.2490    -0.0560 h4         1 0SY       0.019100
     25 H9          -2.1540     2.1700    -0.0590 ha         1 0SY       0.119000
     26 H10          4.8900    -1.6480     0.1010 h1         1 0SY       0.044200
     27 H11          2.8630    -2.1720     1.2190 hc         1 0SY       0.062700
@<TRIPOS>BOND
     1     1     2 1   
     2     1    10 2   
     3     1    17 1   
     4     2     3 1   
     5     2     8 2   
     6     3     4 2   
     7     3     5 1   
     8     5     6 1   
     9     5    18 1   
    10     6     7 1   
    11     6    19 1   
    12     6    26 1   
    13     7     8 1   
    14     7    20 1   
    15     7    27 1   
    16     8     9 1   
    17     9    10 1   
    18     9    21 1   
    19    10    11 1   
    20    11    12 ar  
    21    11    16 ar  
    22    12    13 ar  
    23    12    22 1   
    24    13    14 ar  
    25    13    23 1   
    26    14    15 ar  
    27    15    16 ar  
    28    15    24 1   
    29    16    25 1   
@<TRIPOS>SUBSTRUCTURE
     1 0SY         1 TEMP              0 ****  ****    0 ROOT
