@<TRIPOS>MOLECULE
0SZ
   36    38     1     0     0
SMALL
bcc


@<TRIPOS>ATOM
      1 OAA          4.7090     2.2190    -1.2320 o          1 0SZ      -0.817300
      2 CAP          3.8070     1.9810    -0.4090 c          1 0SZ       0.925200
      3 OAD          3.3670     2.7430     0.4710 o          1 0SZ      -0.817300
      4 CAQ          3.1670     0.5980    -0.4890 ca         1 0SZ      -0.157600
      5 CAL          2.1540     0.2440     0.3950 ca         1 0SZ      -0.014000
      6 CAH          3.5830    -0.3340    -1.4360 ca         1 0SZ      -0.050000
      7 CAG          3.0070    -1.5950    -1.5030 ca         1 0SZ      -0.181000
      8 CAK          1.9970    -1.9510    -0.6230 ca         1 0SZ      -0.071000
      9 CAT          1.5790    -1.0180     0.3200 ca         1 0SZ      -0.330500
     10 SAV          0.2440    -1.4250     1.4080 sy         1 0SZ       1.295200
     11 OAB          0.1750    -2.8710     1.5310 o          1 0SZ      -0.623800
     12 OAC          0.3620    -0.6120     2.6070 o          1 0SZ      -0.623800
     13 NAU         -1.1450    -0.9460     0.6400 n3         1 0SZ      -0.716500
     14 CAN         -1.5010    -1.6580    -0.5880 c6         1 0SZ       0.194800
     15 CAM         -3.0060    -1.5790    -0.7610 c6         1 0SZ      -0.028100
     16 CAR         -3.5210    -0.1760    -0.6010 ca         1 0SZ      -0.061300
     17 CAI         -4.7900     0.1700    -1.0650 ca         1 0SZ      -0.133000
     18 CAE         -5.2810     1.4560    -0.9130 ca         1 0SZ      -0.135000
     19 CAF         -4.5000     2.4220    -0.2890 ca         1 0SZ      -0.133000
     20 CAJ         -3.2390     2.0870     0.1770 ca         1 0SZ      -0.121000
     21 CAS         -2.7430     0.7940     0.0270 ca         1 0SZ      -0.064300
     22 CAO         -1.3510     0.4940     0.5190 c6         1 0SZ       0.231100
     23 H2           1.8330     0.9600     1.1400 ha         1 0SZ       0.169000
     24 H3           4.3720    -0.0690    -2.1270 ha         1 0SZ       0.150000
     25 H4           3.3500    -2.3100    -2.2390 ha         1 0SZ       0.111000
     26 H5           1.5590    -2.9390    -0.6700 ha         1 0SZ       0.126000
     27 H6          -0.9860    -1.2150    -1.4490 h1         1 0SZ       0.056700
     28 H7          -1.2000    -2.7010    -0.5180 h1         1 0SZ       0.056700
     29 H8          -3.2720    -1.9700    -1.7460 hc         1 0SZ       0.051700
     30 H9          -3.4850    -2.2330    -0.0270 hc         1 0SZ       0.051700
     31 H10         -5.3950    -0.5840    -1.5550 ha         1 0SZ       0.121000
     32 H11         -6.2670     1.7060    -1.2820 ha         1 0SZ       0.121000
     33 H12         -4.8720     3.4300    -0.1640 ha         1 0SZ       0.126000
     34 H13         -2.6310     2.8380     0.6680 ha         1 0SZ       0.138000
     35 H14         -1.2000     0.9630     1.4900 h1         1 0SZ       0.076700
     36 H15         -0.6260     0.9380    -0.1790 h1         1 0SZ       0.076700
@<TRIPOS>BOND
     1     1     2 1   
     2     2     3 1   
     3     2     4 1   
     4     4     5 ar  
     5     4     6 ar  
     6     5     9 ar  
     7     5    23 1   
     8     6     7 ar  
     9     6    24 1   
    10     7     8 ar  
    11     7    25 1   
    12     8     9 ar  
    13     8    26 1   
    14     9    10 1   
    15    10    11 2   
    16    10    12 2   
    17    10    13 1   
    18    13    14 1   
    19    13    22 1   
    20    14    15 1   
    21    14    27 1   
    22    14    28 1   
    23    15    16 1   
    24    15    29 1   
    25    15    30 1   
    26    16    17 ar  
    27    16    21 ar  
    28    17    18 ar  
    29    17    31 1   
    30    18    19 ar  
    31    18    32 1   
    32    19    20 ar  
    33    19    33 1   
    34    20    21 ar  
    35    20    34 1   
    36    21    22 1   
    37    22    35 1   
    38    22    36 1   
@<TRIPOS>SUBSTRUCTURE
     1 0SZ         1 TEMP              0 ****  ****    0 ROOT
