@<TRIPOS>MOLECULE
0SZ
   36    38     1     0     0
SMALL
No Charge or Current Charge


@<TRIPOS>ATOM
      1 OAA          5.5280    -0.0200    -2.5470 o          1 0SZ      -0.712000
      2 CAP          4.7410     0.4660    -1.7470 c          1 0SZ       0.714600
      3 OAD          4.7840     1.6380    -1.4040 o          1 0SZ      -0.712000
      4 CAQ          3.6660    -0.4250    -1.1550 ca         1 0SZ      -0.157600
      5 CAL          2.7360     0.0930    -0.2240 ca         1 0SZ       0.004000
      6 CAH          3.5740    -1.7870    -1.5230 ca         1 0SZ      -0.032000
      7 CAG          2.5760    -2.6090    -0.9750 ca         1 0SZ      -0.163000
      8 CAK          1.6560    -2.0890    -0.0520 ca         1 0SZ      -0.053000
      9 CAT          1.7340    -0.7350     0.3270 ca         1 0SZ      -0.330500
     10 SAV          0.5420    -0.0620     1.5030 sy         1 0SZ       1.153600
     11 OAB          0.3370    -1.0740     2.5460 o          1 0SZ      -0.553000
     12 OAC          0.8790     1.3300     1.8250 o          1 0SZ      -0.553000
     13 NAU         -0.8990    -0.0340     0.6010 n3         1 0SZ      -0.716500
     14 CAN         -0.8170     0.6420    -0.7150 c6         1 0SZ       0.194800
     15 CAM         -2.0530     0.3150    -1.5850 c6         1 0SZ      -0.028100
     16 CAR         -3.3760     0.4430    -0.8270 ca         1 0SZ      -0.061300
     17 CAI         -4.5900     0.4950    -1.5370 ca         1 0SZ      -0.115000
     18 CAE         -5.8100     0.5930    -0.8480 ca         1 0SZ      -0.117000
     19 CAF         -5.8210     0.6380     0.5550 ca         1 0SZ      -0.115000
     20 CAJ         -4.6120     0.5830     1.2690 ca         1 0SZ      -0.103000
     21 CAS         -3.3840     0.4810     0.5840 ca         1 0SZ      -0.064300
     22 CAO         -2.0710     0.4400     1.3780 c6         1 0SZ       0.231100
     23 H2           2.7910     1.1410     0.0680 ha         1 0SZ       0.151000
     24 H3           4.2760    -2.2130    -2.2370 ha         1 0SZ       0.132000
     25 H4           2.5140    -3.6540    -1.2680 ha         1 0SZ       0.093000
     26 H5           0.8830    -2.7340     0.3620 ha         1 0SZ       0.108000
     27 H6          -0.7470     1.7310    -0.5790 h1         1 0SZ       0.056700
     28 H7           0.0740     0.3320    -1.2790 h1         1 0SZ       0.056700
     29 H8          -2.0580     0.9660    -2.4690 hc         1 0SZ       0.051700
     30 H9          -1.9610    -0.7130    -1.9590 hc         1 0SZ       0.051700
     31 H10         -4.5880     0.4560    -2.6250 ha         1 0SZ       0.103000
     32 H11         -6.7460     0.6340    -1.4010 ha         1 0SZ       0.103000
     33 H12         -6.7650     0.7160     1.0900 ha         1 0SZ       0.108000
     34 H13         -4.6280     0.6200     2.3570 ha         1 0SZ       0.120000
     35 H14         -2.2240    -0.2030     2.2570 h1         1 0SZ       0.076700
     36 H15         -1.8860     1.4550     1.7620 h1         1 0SZ       0.076700
@<TRIPOS>BOND
     1     1     2 1   
     2     2     3 1   
     3     2     4 1   
     4     4     5 ar  
     5     4     6 ar  
     6     5     9 ar  
     7     5    23 1   
     8     6     7 ar  
     9     6    24 1   
    10     7     8 ar  
    11     7    25 1   
    12     8     9 ar  
    13     8    26 1   
    14     9    10 1   
    15    10    11 2   
    16    10    12 2   
    17    10    13 1   
    18    13    14 1   
    19    13    22 1   
    20    14    15 1   
    21    14    27 1   
    22    14    28 1   
    23    15    16 1   
    24    15    29 1   
    25    15    30 1   
    26    16    17 ar  
    27    16    21 ar  
    28    17    18 ar  
    29    17    31 1   
    30    18    19 ar  
    31    18    32 1   
    32    19    20 ar  
    33    19    33 1   
    34    20    21 ar  
    35    20    34 1   
    36    21    22 1   
    37    22    35 1   
    38    22    36 1   
@<TRIPOS>SUBSTRUCTURE
     1 0SZ         1 TEMP              0 ****  ****    0 ROOT
