@<TRIPOS>MOLECULE
0T0
   41    43     1     0     0
SMALL
bcc


@<TRIPOS>ATOM
      1 CAN         -1.1000     1.1990    -0.7270 c6         1 0T0       0.191800
      2 CAM         -2.4260     1.9260    -0.6080 c6         1 0T0      -0.028100
      3 CAT         -3.3890     1.1980     0.2870 ca         1 0T0      -0.059300
      4 CAJ         -4.5000     1.8560     0.8130 ca         1 0T0      -0.126000
      5 CAE         -5.4020     1.1960     1.6310 ca         1 0T0      -0.121000
      6 CAF         -5.2000    -0.1460     1.9360 ca         1 0T0      -0.127000
      7 CAK         -4.1010    -0.8080     1.4160 ca         1 0T0      -0.123000
      8 CAU         -3.1940    -0.1470     0.5900 ca         1 0T0      -0.080300
      9 CAO         -2.0000    -0.9100     0.0750 c6         1 0T0       0.236100
     10 NAV         -1.3790    -0.2040    -1.0420 n3         1 0T0      -0.705500
     11 SAW         -0.2150    -1.0350    -1.8730 sy         1 0T0       1.292200
     12 OAC         -0.7440    -2.3630    -2.1320 o          1 0T0      -0.597800
     13 OAD          0.1970    -0.1950    -2.9830 o          1 0T0      -0.597800
     14 CAS          1.1560    -1.1950    -0.7590 ca         1 0T0      -0.314500
     15 CAL          2.1080    -0.1880    -0.7150 ca         1 0T0       0.014000
     16 CAI          1.2260    -2.2960     0.0870 ca         1 0T0      -0.018000
     17 CAG          2.2700    -2.3750     0.9940 ca         1 0T0      -0.157000
     18 CAH          3.2190    -1.3660     1.0600 ca         1 0T0      -0.056000
     19 CAR          3.1430    -0.2630     0.2120 ca         1 0T0      -0.169600
     20 CAQ          4.1540     0.8430     0.2110 c          1 0T0       0.673700
     21 OAB          4.3190     1.5390    -0.7830 o          1 0T0      -0.592100
     22 NAP          4.8460     1.0230     1.3410 ns         1 0T0      -0.569900
     23 CAA          5.8550     2.0500     1.4640 c3         1 0T0       0.093300
     24 H1          -0.5070     1.6520    -1.5180 h1         1 0T0       0.058200
     25 H2          -0.5300     1.2720     0.2070 h1         1 0T0       0.058200
     26 H3          -2.2460     2.9340    -0.2300 hc         1 0T0       0.062700
     27 H4          -2.8610     2.0400    -1.6050 hc         1 0T0       0.062700
     28 H5          -4.6530     2.9020     0.5760 ha         1 0T0       0.131000
     29 H6          -6.2560     1.7240     2.0320 ha         1 0T0       0.133000
     30 H7          -5.8980    -0.6730     2.5730 ha         1 0T0       0.133000
     31 H8          -3.9420    -1.8540     1.6530 ha         1 0T0       0.130000
     32 H9          -1.2840    -1.0460     0.8980 h1         1 0T0       0.061200
     33 H10         -2.3170    -1.8990    -0.2520 h1         1 0T0       0.061200
     34 H11          2.0640     0.6510    -1.3950 ha         1 0T0       0.176000
     35 H12          0.4910    -3.0880     0.0370 ha         1 0T0       0.156000
     36 H13          2.3490    -3.2320     1.6470 ha         1 0T0       0.141000
     37 H14          4.0320    -1.4710     1.7660 ha         1 0T0       0.132000
     38 H15          4.6130     0.4960     2.1650 hn         1 0T0       0.315500
     39 H16          6.6380     1.9270     0.7150 h1         1 0T0       0.042700
     40 H17          5.4310     3.0500     1.3570 h1         1 0T0       0.042700
     41 H18          6.3060     1.9720     2.4480 h1         1 0T0       0.042700
@<TRIPOS>BOND
     1     1     2 1   
     2     1    10 1   
     3     1    24 1   
     4     1    25 1   
     5     2     3 1   
     6     2    26 1   
     7     2    27 1   
     8     3     4 ar  
     9     3     8 ar  
    10     4     5 ar  
    11     4    28 1   
    12     5     6 ar  
    13     5    29 1   
    14     6     7 ar  
    15     6    30 1   
    16     7     8 ar  
    17     7    31 1   
    18     8     9 1   
    19     9    10 1   
    20     9    32 1   
    21     9    33 1   
    22    10    11 1   
    23    11    12 2   
    24    11    13 2   
    25    11    14 1   
    26    14    15 ar  
    27    14    16 ar  
    28    15    19 ar  
    29    15    34 1   
    30    16    17 ar  
    31    16    35 1   
    32    17    18 ar  
    33    17    36 1   
    34    18    19 ar  
    35    18    37 1   
    36    19    20 1   
    37    20    21 2   
    38    20    22 1   
    39    22    23 1   
    40    22    38 1   
    41    23    39 1   
    42    23    40 1   
    43    23    41 1   
@<TRIPOS>SUBSTRUCTURE
     1 0T0         1 TEMP              0 ****  ****    0 ROOT
