@<TRIPOS>MOLECULE
0T0
   41    43     1     0     0
SMALL
No Charge or Current Charge


@<TRIPOS>ATOM
      1 CAN         -1.2840    -0.5670     1.3610 c6         1 0T0       0.191800
      2 CAM         -2.0060     0.7780     1.6010 c6         1 0T0      -0.028100
      3 CAT         -3.3210     0.9020     0.8290 ca         1 0T0      -0.059300
      4 CAJ         -4.2470     1.9050     1.1750 ca         1 0T0      -0.108000
      5 CAE         -5.4480     2.0370     0.4580 ca         1 0T0      -0.103000
      6 CAF         -5.7270     1.1680    -0.6090 ca         1 0T0      -0.109000
      7 CAK         -4.8040     0.1680    -0.9610 ca         1 0T0      -0.105000
      8 CAU         -3.5960     0.0320    -0.2480 ca         1 0T0      -0.080300
      9 CAO         -2.6070    -1.0750    -0.6330 c6         1 0T0       0.236100
     10 NAV         -1.2420    -0.8950    -0.0840 n3         1 0T0      -0.705500
     11 SAW         -0.1640    -2.1330    -0.5260 sy         1 0T0       1.150600
     12 OAC         -0.6140    -3.3630     0.1340 o          1 0T0      -0.527000
     13 OAD         -0.0240    -2.0360    -1.9840 o          1 0T0      -0.527000
     14 CAS          1.3860    -1.5710     0.1930 ca         1 0T0      -0.314500
     15 CAL          2.0170    -0.4280    -0.3360 ca         1 0T0       0.032000
     16 CAI          1.9580    -2.2520     1.2840 ca         1 0T0       0.000000
     17 CAG          3.1610    -1.7880     1.8370 ca         1 0T0      -0.139000
     18 CAH          3.7950    -0.6490     1.3110 ca         1 0T0      -0.038000
     19 CAR          3.2280     0.0470     0.2160 ca         1 0T0      -0.169600
     20 CAQ          3.8730     1.2790    -0.3800 c          1 0T0       0.606700
     21 OAB          3.3840     1.8750    -1.3300 o          1 0T0      -0.592100
     22 NAP          5.0490     1.7070     0.1960 ns         1 0T0      -0.502900
     23 CAA          5.8100     2.8780    -0.2490 c3         1 0T0       0.093300
     24 H1          -0.2760    -0.4830     1.7900 h1         1 0T0       0.058200
     25 H2          -1.8040    -1.3620     1.9160 h1         1 0T0       0.058200
     26 H3          -2.1830     0.9080     2.6770 hc         1 0T0       0.062700
     27 H4          -1.3410     1.5970     1.2960 hc         1 0T0       0.062700
     28 H5          -4.0340     2.5840     1.9980 ha         1 0T0       0.113000
     29 H6          -6.1610     2.8120     0.7300 ha         1 0T0       0.115000
     30 H7          -6.6570     1.2690    -1.1640 ha         1 0T0       0.115000
     31 H8          -5.0280    -0.5020    -1.7870 ha         1 0T0       0.112000
     32 H9          -3.0290    -2.0320    -0.2890 h1         1 0T0       0.061200
     33 H10         -2.5650    -1.1280    -1.7320 h1         1 0T0       0.061200
     34 H11          1.5590     0.0960    -1.1740 ha         1 0T0       0.158000
     35 H12          1.4790    -3.1350     1.7060 ha         1 0T0       0.138000
     36 H13          3.6050    -2.3130     2.6790 ha         1 0T0       0.123000
     37 H14          4.7250    -0.3240     1.7700 ha         1 0T0       0.114000
     38 H15          5.4020     1.1710     0.9790 hn         1 0T0       0.315500
     39 H16          6.1170     2.7430    -1.2940 h1         1 0T0       0.042700
     40 H17          5.1860     3.7770    -0.1650 h1         1 0T0       0.042700
     41 H18          6.7020     2.9960     0.3780 h1         1 0T0       0.042700
@<TRIPOS>BOND
     1     1     2 1   
     2     1    10 1   
     3     1    24 1   
     4     1    25 1   
     5     2     3 1   
     6     2    26 1   
     7     2    27 1   
     8     3     4 ar  
     9     3     8 ar  
    10     4     5 ar  
    11     4    28 1   
    12     5     6 ar  
    13     5    29 1   
    14     6     7 ar  
    15     6    30 1   
    16     7     8 ar  
    17     7    31 1   
    18     8     9 1   
    19     9    10 1   
    20     9    32 1   
    21     9    33 1   
    22    10    11 1   
    23    11    12 2   
    24    11    13 2   
    25    11    14 1   
    26    14    15 ar  
    27    14    16 ar  
    28    15    19 ar  
    29    15    34 1   
    30    16    17 ar  
    31    16    35 1   
    32    17    18 ar  
    33    17    36 1   
    34    18    19 ar  
    35    18    37 1   
    36    19    20 1   
    37    20    21 2   
    38    20    22 1   
    39    22    23 1   
    40    22    38 1   
    41    23    39 1   
    42    23    40 1   
    43    23    41 1   
@<TRIPOS>SUBSTRUCTURE
     1 0T0         1 TEMP              0 ****  ****    0 ROOT
