@<TRIPOS>MOLECULE
0T2
   64    68     1     0     0
SMALL
abcg2


@<TRIPOS>ATOM
      1 C1           0.8100     2.7960    -2.3250 c3         1 0T2       0.219100
      2 N2           1.5020     1.9960    -1.3340 nh         1 0T2      -0.822100
      3 C3           0.8210     1.6550    -0.1440 ca         1 0T2       0.304000
      4 C4           1.2680     2.1080     1.0940 ca         1 0T2      -0.088000
      5 C5           0.5720     1.7810     2.2450 ca         1 0T2      -0.123000
      6 C6          -0.5830     1.0340     2.1450 ca         1 0T2       0.131000
      7 F7          -1.2730     0.7350     3.2560 f          1 0T2      -0.180000
      8 C8          -1.0580     0.5750     0.9240 ca         1 0T2      -0.066000
      9 N9          -2.2250    -0.2010     0.8860 ns         1 0T2      -0.148000
     10 C10         -3.2440    -0.0090     0.0120 c          1 0T2       0.625700
     11 O11         -3.2580     0.8470    -0.8470 o          1 0T2      -0.559100
     12 C12         -4.3610    -0.9920     0.1820 ca         1 0T2      -0.143600
     13 C13         -4.0880    -2.3540     0.1100 ca         1 0T2      -0.085000
     14 C14         -5.1120    -3.2810     0.2110 ca         1 0T2      -0.102000
     15 C15         -6.4170    -2.8580     0.3970 ca         1 0T2      -0.103000
     16 C16         -6.7080    -1.5020     0.4710 ca         1 0T2       0.102100
     17 O17         -7.9660    -1.0560     0.7220 os         1 0T2      -0.346100
     18 C18         -8.9330    -1.0520    -0.3290 c3         1 0T2       0.267100
     19 C19        -10.0300    -0.0960     0.1200 c3         1 0T2      -0.103100
     20 C20         -8.3660    -0.6470    -1.6840 c3         1 0T2      -0.103100
     21 C21         -9.5040    -2.4140    -0.4370 c1         1 0T2       0.271900
     22 N22         -9.9650    -3.4630    -0.5280 n1         1 0T2      -0.449000
     23 C23         -5.6760    -0.5720     0.3550 ca         1 0T2       0.141000
     24 CL2         -6.0560     1.1020     0.5080 cl         1 0T2      -0.156000
     25 C25         -0.3280     0.8790    -0.2200 ca         1 0T2      -0.100000
     26 C26          2.8350     1.7110    -1.4830 ca         1 0T2       0.621900
     27 C27          3.5900     2.2840    -2.5340 ca         1 0T2      -0.217000
     28 C28          4.9230     1.9670    -2.6700 ca         1 0T2       0.004000
     29 C29          5.4970     1.0870    -1.7560 ca         1 0T2       0.023400
     30 N30          6.7960     0.6470    -1.7050 nc         1 0T2      -0.588100
     31 C31          6.9570    -0.1620    -0.7170 cd         1 0T2       0.425800
     32 N32          8.1740    -0.7340    -0.4540 ns         1 0T2      -0.398400
     33 C33          8.4300    -1.6030     0.5690 c          1 0T2       0.641100
     34 O34          7.5510    -1.9420     1.3410 o          1 0T2      -0.572100
     35 C35          9.8260    -2.0770     0.6450 cx         1 0T2      -0.248700
     36 C36         10.3930    -2.3680     2.0130 cx         1 0T2      -0.091400
     37 C37         10.0600    -3.4940     1.1100 cx         1 0T2      -0.091400
     38 S38          5.5520    -0.4920     0.2770 ss         1 0T2      -0.076500
     39 C39          4.6540     0.5870    -0.7630 ca         1 0T2       0.378300
     40 N40          3.3770     0.8630    -0.6130 nb         1 0T2      -0.697000
     41 H1           0.9180     2.3730    -3.3250 h1         1 0T2       0.045700
     42 H2          -0.2490     2.8210    -2.0870 h1         1 0T2       0.045700
     43 H3           1.1730     3.8280    -2.3450 h1         1 0T2       0.045700
     44 H4           2.1590     2.7160     1.1640 ha         1 0T2       0.131000
     45 H5           0.9100     2.1240     3.2140 ha         1 0T2       0.136000
     46 H6          -2.3790    -0.8480     1.6450 hn         1 0T2       0.170000
     47 H7          -3.0690    -2.6890    -0.0360 ha         1 0T2       0.128000
     48 H8          -4.8940    -4.3380     0.1520 ha         1 0T2       0.128000
     49 H9          -7.2100    -3.5860     0.5070 ha         1 0T2       0.137000
     50 H10        -10.4370    -0.3870     1.0880 hc         1 0T2       0.059700
     51 H11         -9.6150     0.9080     0.1960 hc         1 0T2       0.059700
     52 H12        -10.8410    -0.0810    -0.6060 hc         1 0T2       0.059700
     53 H13         -9.1630    -0.6540    -2.4250 hc         1 0T2       0.059700
     54 H14         -7.9650     0.3650    -1.6280 hc         1 0T2       0.059700
     55 H15         -7.5820    -1.3200    -2.0300 hc         1 0T2       0.059700
     56 H16         -0.6500     0.4960    -1.1790 ha         1 0T2       0.139000
     57 H17          3.1380     2.9790    -3.2270 ha         1 0T2       0.127000
     58 H18          5.5130     2.4030    -3.4670 ha         1 0T2       0.132000
     59 H19          8.9200    -0.4680    -1.0810 hn         1 0T2       0.340500
     60 H20         10.5100    -1.6850    -0.0980 hc         1 0T2       0.092700
     61 H21         11.4320    -2.1110     2.1660 hc         1 0T2       0.085450
     62 H22          9.7480    -2.1870     2.8630 hc         1 0T2       0.085450
     63 H23          9.1850    -4.0890     1.3370 hc         1 0T2       0.085450
     64 H24         10.8650    -4.0300     0.6260 hc         1 0T2       0.085450
@<TRIPOS>BOND
     1     1     2 1   
     2     1    41 1   
     3     1    42 1   
     4     1    43 1   
     5     2     3 1   
     6     2    26 1   
     7     3     4 ar  
     8     3    25 ar  
     9     4     5 ar  
    10     4    44 1   
    11     5     6 ar  
    12     5    45 1   
    13     6     7 1   
    14     6     8 ar  
    15     8     9 1   
    16     8    25 ar  
    17     9    10 1   
    18     9    46 1   
    19    10    11 2   
    20    10    12 1   
    21    12    13 ar  
    22    12    23 ar  
    23    13    14 ar  
    24    13    47 1   
    25    14    15 ar  
    26    14    48 1   
    27    15    16 ar  
    28    15    49 1   
    29    16    17 1   
    30    16    23 ar  
    31    17    18 1   
    32    18    19 1   
    33    18    20 1   
    34    18    21 1   
    35    19    50 1   
    36    19    51 1   
    37    19    52 1   
    38    20    53 1   
    39    20    54 1   
    40    20    55 1   
    41    21    22 3   
    42    23    24 1   
    43    25    56 1   
    44    26    27 ar  
    45    26    40 ar  
    46    27    28 ar  
    47    27    57 1   
    48    28    29 ar  
    49    28    58 1   
    50    29    30 1   
    51    29    39 ar  
    52    30    31 2   
    53    31    32 1   
    54    31    38 1   
    55    32    33 1   
    56    32    59 1   
    57    33    34 2   
    58    33    35 1   
    59    35    36 1   
    60    35    37 1   
    61    35    60 1   
    62    36    37 1   
    63    36    61 1   
    64    36    62 1   
    65    37    63 1   
    66    37    64 1   
    67    38    39 1   
    68    39    40 ar  
@<TRIPOS>SUBSTRUCTURE
     1 0T2         1 TEMP              0 ****  ****    0 ROOT
