@<TRIPOS>MOLECULE
0T2
   64    68     1     0     0
SMALL
No Charge or Current Charge


@<TRIPOS>ATOM
      1 C1           1.0740     3.7310    -1.1680 c3         1 0T2       0.219100
      2 N2           1.7210     2.6450    -0.3930 nh         1 0T2      -0.822100
      3 C3           0.9820     2.0250     0.6450 ca         1 0T2       0.304000
      4 C4           1.4930     1.9830     1.9570 ca         1 0T2      -0.088000
      5 C5           0.7530     1.3850     2.9900 ca         1 0T2      -0.123000
      6 C6          -0.5040     0.8260     2.7160 ca         1 0T2       0.131000
      7 F7          -1.2030     0.2540     3.7230 f          1 0T2      -0.180000
      8 C8          -1.0410     0.8560     1.4130 ca         1 0T2      -0.066000
      9 N9          -2.3260     0.2690     1.2080 ns         1 0T2      -0.148000
     10 C10         -3.1150     0.0880     0.0770 c          1 0T2       0.625700
     11 O11         -2.7550     0.4240    -1.0440 o          1 0T2      -0.559100
     12 C12         -4.4270    -0.6350     0.3310 ca         1 0T2      -0.143600
     13 C13         -4.5200    -1.5530     1.4060 ca         1 0T2      -0.085000
     14 C14         -5.7120    -2.2450     1.6590 ca         1 0T2      -0.102000
     15 C15         -6.8370    -2.0430     0.8490 ca         1 0T2      -0.103000
     16 C16         -6.7790    -1.1370    -0.2340 ca         1 0T2       0.102100
     17 O17         -7.8610    -0.8690    -1.0720 os         1 0T2      -0.346100
     18 C18         -9.1080    -1.6070    -1.1720 c3         1 0T2       0.267100
     19 C19         -9.8790    -0.8950    -2.3080 c3         1 0T2      -0.103100
     20 C20         -8.7950    -3.0690    -1.5920 c3         1 0T2      -0.103100
     21 C21         -9.8980    -1.5150     0.0820 c1         1 0T2       0.271900
     22 N22        -10.5310    -1.4680     1.0620 n1         1 0T2      -0.449000
     23 C23         -5.5750    -0.4320    -0.4840 ca         1 0T2       0.141000
     24 Cl2         -5.5830     0.7510    -1.8060 cl         1 0T2      -0.156000
     25 C25         -0.2840     1.4640     0.3820 ca         1 0T2      -0.100000
     26 C26          3.0510     2.2770    -0.6860 ca         1 0T2       0.621900
     27 C27          3.9410     3.1200    -1.3880 ca         1 0T2      -0.217000
     28 C28          5.2500     2.6790    -1.6610 ca         1 0T2       0.004000
     29 C29          5.6160     1.4000    -1.2190 ca         1 0T2       0.023400
     30 N30          6.8730     0.8310    -1.4150 nc         1 0T2      -0.588100
     31 C31          6.8240    -0.3820    -0.8540 cd         1 0T2       0.425800
     32 N32          7.9530    -1.1560    -0.9100 ns         1 0T2      -0.398400
     33 C33          8.1750    -2.4190    -0.4240 c          1 0T2       0.641100
     34 O34          7.3450    -3.0970     0.1610 o          1 0T2      -0.572100
     35 C35          9.5730    -2.9210    -0.6930 cx         1 0T2      -0.248700
     36 C36         10.7450    -2.2090    -0.0430 cx         1 0T2      -0.091400
     37 C37         10.3430    -3.5850     0.4330 cx         1 0T2      -0.091400
     38 S38          5.3000    -0.9060    -0.0720 ss         1 0T2      -0.076500
     39 C39          4.6640     0.6510    -0.5420 ca         1 0T2       0.378300
     40 N40          3.4050     1.0470    -0.2680 nb         1 0T2      -0.697000
     41 H1           1.1750     3.5500    -2.2470 h1         1 0T2       0.045700
     42 H2           0.0010     3.7950    -0.9430 h1         1 0T2       0.045700
     43 H3           1.5210     4.7040    -0.9210 h1         1 0T2       0.045700
     44 H4           2.4630     2.4210     2.1720 ha         1 0T2       0.131000
     45 H5           1.1510     1.3550     4.0010 ha         1 0T2       0.136000
     46 H6          -2.7530    -0.0680     2.0610 hn         1 0T2       0.170000
     47 H7          -3.6650    -1.7600     2.0470 ha         1 0T2       0.128000
     48 H8          -5.7620    -2.9480     2.4890 ha         1 0T2       0.128000
     49 H9          -7.7350    -2.5960     1.0940 ha         1 0T2       0.137000
     50 H10        -10.0650     0.1570    -2.0570 hc         1 0T2       0.059700
     51 H11         -9.3050    -0.9220    -3.2420 hc         1 0T2       0.059700
     52 H12        -10.8460    -1.3790    -2.4920 hc         1 0T2       0.059700
     53 H13         -9.7170    -3.5960    -1.8640 hc         1 0T2       0.059700
     54 H14         -8.1300    -3.0840    -2.4640 hc         1 0T2       0.059700
     55 H15         -8.3170    -3.6430    -0.7920 hc         1 0T2       0.059700
     56 H16         -0.6530     1.5060    -0.6350 ha         1 0T2       0.139000
     57 H17          3.6350     4.1070    -1.7140 ha         1 0T2       0.127000
     58 H18          5.9570     3.3090    -2.1960 ha         1 0T2       0.132000
     59 H19          8.7530    -0.7530    -1.3730 hn         1 0T2       0.340500
     60 H20          9.7290    -3.3200    -1.6920 hc         1 0T2       0.092700
     61 H21         11.6670    -2.1210    -0.6130 hc         1 0T2       0.085450
     62 H22         10.5420    -1.3710     0.6210 hc         1 0T2       0.085450
     63 H23          9.8680    -3.6640     1.4090 hc         1 0T2       0.085450
     64 H24         10.9950    -4.4190     0.1800 hc         1 0T2       0.085450
@<TRIPOS>BOND
     1     1     2 1   
     2     1    41 1   
     3     1    42 1   
     4     1    43 1   
     5     2     3 1   
     6     2    26 1   
     7     3     4 ar  
     8     3    25 ar  
     9     4     5 ar  
    10     4    44 1   
    11     5     6 ar  
    12     5    45 1   
    13     6     7 1   
    14     6     8 ar  
    15     8     9 1   
    16     8    25 ar  
    17     9    10 1   
    18     9    46 1   
    19    10    11 2   
    20    10    12 1   
    21    12    13 ar  
    22    12    23 ar  
    23    13    14 ar  
    24    13    47 1   
    25    14    15 ar  
    26    14    48 1   
    27    15    16 ar  
    28    15    49 1   
    29    16    17 1   
    30    16    23 ar  
    31    17    18 1   
    32    18    19 1   
    33    18    20 1   
    34    18    21 1   
    35    19    50 1   
    36    19    51 1   
    37    19    52 1   
    38    20    53 1   
    39    20    54 1   
    40    20    55 1   
    41    21    22 3   
    42    23    24 1   
    43    25    56 1   
    44    26    27 ar  
    45    26    40 ar  
    46    27    28 ar  
    47    27    57 1   
    48    28    29 ar  
    49    28    58 1   
    50    29    30 1   
    51    29    39 ar  
    52    30    31 2   
    53    31    32 1   
    54    31    38 1   
    55    32    33 1   
    56    32    59 1   
    57    33    34 2   
    58    33    35 1   
    59    35    36 1   
    60    35    37 1   
    61    35    60 1   
    62    36    37 1   
    63    36    61 1   
    64    36    62 1   
    65    37    63 1   
    66    37    64 1   
    67    38    39 1   
    68    39    40 ar  
@<TRIPOS>SUBSTRUCTURE
     1 0T2         1 TEMP              0 ****  ****    0 ROOT
