@<TRIPOS>MOLECULE
0T3
   30    32     1     0     0
SMALL
No Charge or Current Charge


@<TRIPOS>ATOM
      1 C01          2.9520    -2.1080    -0.0900 c6         1 0T3      -0.078400
      2 C02          1.4010    -1.9970    -0.0560 c6         1 0T3      -0.085400
      3 C03          0.9040    -0.7150     0.6840 c6         1 0T3       0.132600
      4 N04          1.7510     0.4460     0.3250 na         1 0T3      -0.170500
      5 C05          1.5450     1.7660     0.6620 cc         1 0T3       0.393400
      6 N06          2.5460     2.5210     0.2210 nd         1 0T3      -0.670000
      7 C07          3.4280     1.6540    -0.4010 cd         1 0T3       0.231900
      8 C08          2.9510     0.3710    -0.3360 cc         1 0T3      -0.200300
      9 C09          3.5830    -0.9020    -0.8370 c6         1 0T3      -0.000100
     10 C10         -0.5790    -0.4520     0.3900 ca         1 0T3      -0.092300
     11 C11         -1.5500    -0.7340     1.3710 ca         1 0T3      -0.097500
     12 C12         -2.9120    -0.4970     1.1120 ca         1 0T3      -0.073000
     13 C13         -3.3170     0.0220    -0.1320 ca         1 0T3      -0.007000
     14 C14         -2.3500     0.3020    -1.1160 ca         1 0T3      -0.073000
     15 C15         -0.9890     0.0650    -0.8570 ca         1 0T3      -0.097500
     16 C16         -4.7090     0.2640    -0.3970 cg         1 0T3       0.319000
     17 N17         -5.8420     0.4530    -0.6060 n1         1 0T3      -0.442000
     18 H1           3.3390    -2.1490     0.9380 hc         1 0T3       0.051200
     19 H2           3.2550    -3.0460    -0.5750 hc         1 0T3       0.051200
     20 H3           1.0260    -1.9950    -1.0890 hc         1 0T3       0.058200
     21 H4           0.9690    -2.8860     0.4230 hc         1 0T3       0.058200
     22 H5           1.0290    -0.8770     1.7640 h1         1 0T3       0.066700
     23 H6           0.6710     2.1010     1.2100 h5         1 0T3       0.057100
     24 H7           4.3530     2.0010    -0.8470 h4         1 0T3       0.037100
     25 H8           4.6720    -0.8940    -0.6850 hc         1 0T3       0.057200
     26 H9           3.4180    -1.0090    -1.9180 hc         1 0T3       0.057200
     27 H10         -1.2520    -1.1370     2.3360 ha         1 0T3       0.126500
     28 H11         -3.6510    -0.7190     1.8800 ha         1 0T3       0.130500
     29 H12         -2.6510     0.7020    -2.0830 ha         1 0T3       0.130500
     30 H13         -0.2530     0.2830    -1.6280 ha         1 0T3       0.126500
@<TRIPOS>BOND
     1     1     2 1   
     2     1     9 1   
     3     1    18 1   
     4     1    19 1   
     5     2     3 1   
     6     2    20 1   
     7     2    21 1   
     8     3     4 1   
     9     3    10 1   
    10     3    22 1   
    11     4     5 1   
    12     4     8 1   
    13     5     6 2   
    14     5    23 1   
    15     6     7 1   
    16     7     8 2   
    17     7    24 1   
    18     8     9 1   
    19     9    25 1   
    20     9    26 1   
    21    10    11 ar  
    22    10    15 ar  
    23    11    12 ar  
    24    11    27 1   
    25    12    13 ar  
    26    12    28 1   
    27    13    14 ar  
    28    13    16 1   
    29    14    15 ar  
    30    14    29 1   
    31    15    30 1   
    32    16    17 3   
@<TRIPOS>SUBSTRUCTURE
     1 0T3         1 TEMP              0 ****  ****    0 ROOT
