@<TRIPOS>MOLECULE
0T3
   30    32     1     0     0
SMALL
abcg2


@<TRIPOS>ATOM
      1 C01          2.8810    -2.1010    -0.0620 c6         1 0T3      -0.078400
      2 C02          1.3680    -1.9440    -0.1330 c6         1 0T3      -0.085400
      3 C03          0.9050    -0.7000     0.6280 c6         1 0T3       0.132600
      4 N04          1.7390     0.4380     0.2600 na         1 0T3      -0.170500
      5 C05          1.5120     1.7380     0.5640 cc         1 0T3       0.393400
      6 N06          2.5130     2.4990     0.2110 nd         1 0T3      -0.670000
      7 C07          3.4380     1.6530    -0.3340 cd         1 0T3       0.231900
      8 C08          2.9840     0.3640    -0.3120 cc         1 0T3      -0.200300
      9 C09          3.5580    -0.9320    -0.7720 c6         1 0T3      -0.000100
     10 C10         -0.5530    -0.4180     0.3750 ca         1 0T3      -0.092300
     11 C11         -1.4910    -0.7060     1.3600 ca         1 0T3      -0.097500
     12 C12         -2.8420    -0.5060     1.1320 ca         1 0T3      -0.073000
     13 C13         -3.2600    -0.0060    -0.0990 ca         1 0T3      -0.007000
     14 C14         -2.3280     0.2890    -1.0960 ca         1 0T3      -0.073000
     15 C15         -0.9840     0.0790    -0.8540 ca         1 0T3      -0.097500
     16 C16         -4.6500     0.2070    -0.3430 cg         1 0T3       0.319000
     17 N17         -5.7730     0.3730    -0.5390 n1         1 0T3      -0.442000
     18 H1           3.2000    -2.1490     0.9830 hc         1 0T3       0.051200
     19 H2           3.1810    -3.0400    -0.5280 hc         1 0T3       0.051200
     20 H3           1.0520    -1.8760    -1.1790 hc         1 0T3       0.058200
     21 H4           0.8610    -2.8070     0.2980 hc         1 0T3       0.058200
     22 H5           1.0440    -0.8840     1.6970 h1         1 0T3       0.066700
     23 H6           0.6020     2.0710     1.0400 h5         1 0T3       0.057100
     24 H7           4.3820     2.0090    -0.7200 h4         1 0T3       0.037100
     25 H8           4.6360    -0.9390    -0.6020 hc         1 0T3       0.057200
     26 H9           3.4140    -1.0390    -1.8520 hc         1 0T3       0.057200
     27 H10         -1.1640    -1.0890     2.3180 ha         1 0T3       0.126500
     28 H11         -3.5650    -0.7310     1.9030 ha         1 0T3       0.130500
     29 H12         -2.6570     0.6760    -2.0500 ha         1 0T3       0.130500
     30 H13         -0.2660     0.3050    -1.6330 ha         1 0T3       0.126500
@<TRIPOS>BOND
     1     1     2 1   
     2     1     9 1   
     3     1    18 1   
     4     1    19 1   
     5     2     3 1   
     6     2    20 1   
     7     2    21 1   
     8     3     4 1   
     9     3    10 1   
    10     3    22 1   
    11     4     5 1   
    12     4     8 1   
    13     5     6 2   
    14     5    23 1   
    15     6     7 1   
    16     7     8 2   
    17     7    24 1   
    18     8     9 1   
    19     9    25 1   
    20     9    26 1   
    21    10    11 ar  
    22    10    15 ar  
    23    11    12 ar  
    24    11    27 1   
    25    12    13 ar  
    26    12    28 1   
    27    13    14 ar  
    28    13    16 1   
    29    14    15 ar  
    30    14    29 1   
    31    15    30 1   
    32    16    17 3   
@<TRIPOS>SUBSTRUCTURE
     1 0T3         1 TEMP              0 ****  ****    0 ROOT
