@<TRIPOS>MOLECULE
0T4
   38    39     1     0     0
SMALL
bcc


@<TRIPOS>ATOM
      1 O15          0.2530    -2.3220     0.8650 o          1 0T4      -0.597100
      2 C14          0.4100    -1.1440     0.5780 c          1 0T4       0.677700
      3 C4          -0.7650    -0.2570     0.2990 ca         1 0T4      -0.128600
      4 C5          -1.9190    -0.8530    -0.1910 ca         1 0T4      -0.056000
      5 C6          -3.0260    -0.0580    -0.4540 ca         1 0T4      -0.176300
      6 C7          -4.2950    -0.6880    -0.9410 c3         1 0T4       0.722200
      7 F29         -5.0900    -1.0370     0.0820 f          1 0T4      -0.232633
      8 F27         -5.0070     0.1360    -1.7170 f          1 0T4      -0.232633
      9 F28         -4.0700    -1.7990    -1.6500 f          1 0T4      -0.232633
     10 C1          -3.0000     1.3050    -0.2100 ca         1 0T4      -0.112000
     11 C3          -0.7260     1.1100     0.5510 ca         1 0T4      -0.107000
     12 C2          -1.8450     1.9020     0.2970 ca         1 0T4       0.096600
     13 N8          -1.8320     3.2770     0.4720 nu         1 0T4      -0.490100
     14 O10         -0.8900     3.7310     1.3780 oh         1 0T4      -0.405300
     15 N13          1.6180    -0.5690     0.4780 ns         1 0T4      -0.569900
     16 C12          2.8590    -1.2880     0.7380 c3         1 0T4       0.165000
     17 C13          3.1310    -1.4160     2.2360 c3         1 0T4      -0.102100
     18 C20          3.9910    -0.5940     0.0180 ca         1 0T4      -0.106300
     19 C21          4.6950    -1.2500    -0.9860 ca         1 0T4      -0.117500
     20 C22          5.7420    -0.6190    -1.6470 ca         1 0T4      -0.128500
     21 C23          6.0900     0.6820    -1.3150 ca         1 0T4      -0.120000
     22 C24          5.3910     1.3470    -0.3140 ca         1 0T4      -0.128500
     23 C25          4.3520     0.7110     0.3500 ca         1 0T4      -0.117500
     24 H1          -1.9380    -1.9190    -0.3680 ha         1 0T4       0.173000
     25 H2          -3.8690     1.9210    -0.4060 ha         1 0T4       0.150000
     26 H3           0.1590     1.5660     0.9710 ha         1 0T4       0.148000
     27 H6           1.6840     0.3710     0.1200 hn         1 0T4       0.319500
     28 H7           2.7510    -2.2920     0.3220 h1         1 0T4       0.073700
     29 H8           3.2640    -0.4380     2.6980 hc         1 0T4       0.046367
     30 H9           2.3070    -1.9230     2.7370 hc         1 0T4       0.046367
     31 H10          4.0370    -1.9980     2.4030 hc         1 0T4       0.046367
     32 H11          4.4250    -2.2640    -1.2530 ha         1 0T4       0.132500
     33 H12          6.2810    -1.1450    -2.4240 ha         1 0T4       0.133000
     34 H13          6.9030     1.1780    -1.8300 ha         1 0T4       0.133000
     35 H14          5.6580     2.3610    -0.0470 ha         1 0T4       0.133000
     36 H15          3.8270     1.2410     1.1370 ha         1 0T4       0.132500
     37 H141        -2.7360     3.6670     0.7130 hn         1 0T4       0.407800
     38 H151        -0.2920     4.2800     0.8590 ho         1 0T4       0.423000
@<TRIPOS>BOND
     1     1     2 2   
     2     2     3 1   
     3     2    15 1   
     4     3     4 ar  
     5     3    11 ar  
     6     4     5 ar  
     7     4    24 1   
     8     5     6 1   
     9     5    10 ar  
    10     6     7 1   
    11     6     8 1   
    12     6     9 1   
    13    10    12 ar  
    14    10    25 1   
    15    11    12 ar  
    16    11    26 1   
    17    12    13 1   
    18    13    14 1   
    19    13    37 1   
    20    14    38 1   
    21    15    16 1   
    22    15    27 1   
    23    16    17 1   
    24    16    18 1   
    25    16    28 1   
    26    17    29 1   
    27    17    30 1   
    28    17    31 1   
    29    18    19 ar  
    30    18    23 ar  
    31    19    20 ar  
    32    19    32 1   
    33    20    21 ar  
    34    20    33 1   
    35    21    22 ar  
    36    21    34 1   
    37    22    23 ar  
    38    22    35 1   
    39    23    36 1   
@<TRIPOS>SUBSTRUCTURE
     1 0T4         1 TEMP              0 ****  ****    0 ROOT
