@<TRIPOS>MOLECULE
0T4
   38    39     1     0     0
SMALL
No Charge or Current Charge


@<TRIPOS>ATOM
      1 O15          0.2570    -2.5000     0.3590 o          1 0T4      -0.597100
      2 C14          0.3910    -1.2850     0.2920 c          1 0T4       0.610700
      3 C4          -0.7910    -0.3540     0.1100 ca         1 0T4      -0.128600
      4 C5          -2.0920    -0.9000     0.0250 ca         1 0T4      -0.038000
      5 C6          -3.2210    -0.0740    -0.1530 ca         1 0T4      -0.176300
      6 C7          -4.6230    -0.6910    -0.2380 c3         1 0T4       0.358300
      7 F29         -5.1450    -0.8930     0.9930 f          1 0T4      -0.111333
      8 F27         -5.4950     0.0910    -0.9140 f          1 0T4      -0.111333
      9 F28         -4.6160    -1.8900    -0.8650 f          1 0T4      -0.111333
     10 C1          -3.0410     1.3250    -0.2270 ca         1 0T4      -0.094000
     11 C3          -0.6390     1.0520     0.0230 ca         1 0T4      -0.089000
     12 C2          -1.7590     1.8930    -0.1360 ca         1 0T4       0.235000
     13 N8          -1.6200     3.2930    -0.2260 nu         1 0T4      -0.683700
     14 O10         -0.5300     3.8990     0.5380 oh         1 0T4      -0.444300
     15 N13          1.6350    -0.6990     0.3750 ns         1 0T4      -0.502900
     16 C12          2.8920    -1.4190     0.5640 c3         1 0T4       0.165000
     17 C13          3.0680    -1.8690     2.0290 c3         1 0T4      -0.102100
     18 C20          4.0590    -0.5620     0.0760 ca         1 0T4      -0.106300
     19 C21          4.8010    -0.9600    -1.0550 ca         1 0T4      -0.099500
     20 C22          5.8720    -0.1750    -1.5150 ca         1 0T4      -0.110500
     21 C23          6.2100     1.0150    -0.8510 ca         1 0T4      -0.102000
     22 C24          5.4740     1.4220     0.2730 ca         1 0T4      -0.110500
     23 C25          4.4020     0.6390     0.7350 ca         1 0T4      -0.099500
     24 H1          -2.2250    -1.9790     0.0970 ha         1 0T4       0.155000
     25 H2          -3.9010     1.9780    -0.3520 ha         1 0T4       0.132000
     26 H3           0.3430     1.5090     0.0750 ha         1 0T4       0.130000
     27 H6           1.6750     0.3070     0.2950 hn         1 0T4       0.319500
     28 H7           2.8540    -2.3260    -0.0560 h1         1 0T4       0.073700
     29 H8           3.0450    -1.0130     2.7130 hc         1 0T4       0.046367
     30 H9           2.2680    -2.5590     2.3220 hc         1 0T4       0.046367
     31 H10          4.0250    -2.3870     2.1560 hc         1 0T4       0.046367
     32 H11          4.5480    -1.8790    -1.5800 ha         1 0T4       0.114500
     33 H12          6.4400    -0.4910    -2.3880 ha         1 0T4       0.115000
     34 H13          7.0390     1.6220    -1.2090 ha         1 0T4       0.115000
     35 H14          5.7330     2.3450     0.7870 ha         1 0T4       0.115000
     36 H15          3.8380     0.9690     1.6050 ha         1 0T4       0.114500
     37 H141        -2.4920     3.8300    -0.1110 hn         1 0T4       0.463000
     38 H151        -0.1520     4.6270    -0.0190 ho         1 0T4       0.462000
@<TRIPOS>BOND
     1     1     2 2   
     2     2     3 1   
     3     2    15 1   
     4     3     4 ar  
     5     3    11 ar  
     6     4     5 ar  
     7     4    24 1   
     8     5     6 1   
     9     5    10 ar  
    10     6     7 1   
    11     6     8 1   
    12     6     9 1   
    13    10    12 ar  
    14    10    25 1   
    15    11    12 ar  
    16    11    26 1   
    17    12    13 1   
    18    13    14 1   
    19    13    37 1   
    20    14    38 1   
    21    15    16 1   
    22    15    27 1   
    23    16    17 1   
    24    16    18 1   
    25    16    28 1   
    26    17    29 1   
    27    17    30 1   
    28    17    31 1   
    29    18    19 ar  
    30    18    23 ar  
    31    19    20 ar  
    32    19    32 1   
    33    20    21 ar  
    34    20    33 1   
    35    21    22 ar  
    36    21    34 1   
    37    22    23 ar  
    38    22    35 1   
    39    23    36 1   
@<TRIPOS>SUBSTRUCTURE
     1 0T4         1 TEMP              0 ****  ****    0 ROOT
