@<TRIPOS>MOLECULE
0T5
   37    38     1     0     0
SMALL
No Charge or Current Charge


@<TRIPOS>ATOM
      1 O38          0.5240    -3.6390    -0.1780 o          1 0T5      -0.389000
      2 N8           1.6400    -3.1110    -0.2600 no         1 0T5       0.697200
      3 O10          2.6890    -3.7490    -0.4230 o          1 0T5      -0.389000
      4 C2           1.7280    -1.6180    -0.1560 ca         1 0T5      -0.194200
      5 C1           2.9810    -0.9730    -0.2470 ca         1 0T5       0.014000
      6 C6           3.0730     0.4300    -0.1450 ca         1 0T5      -0.217300
      7 C7           4.4320     1.1280    -0.2550 c3         1 0T5       0.365300
      8 F28          4.4830     2.2710     0.4680 f          1 0T5      -0.105000
      9 F27          5.4490     0.3510     0.1850 f          1 0T5      -0.105000
     10 F29          4.7110     1.4580    -1.5350 f          1 0T5      -0.105000
     11 C5           1.8970     1.1880     0.0310 ca         1 0T5       0.024000
     12 C3           0.5590    -0.8450     0.0320 ca         1 0T5      -0.005000
     13 C4           0.6330     0.5660     0.1240 ca         1 0T5      -0.164600
     14 C14         -0.5940     1.4310     0.3190 c          1 0T5       0.612700
     15 O15         -0.5180     2.6490     0.4060 o          1 0T5      -0.589100
     16 N13         -1.8100     0.7870     0.3900 ns         1 0T5      -0.497900
     17 C12         -3.0980     1.4480     0.5870 c3         1 0T5       0.164000
     18 C13         -3.2940     1.8690     2.0590 c3         1 0T5      -0.102100
     19 C20         -4.2240     0.5450     0.0870 ca         1 0T5      -0.112300
     20 C25         -4.9760     0.9200    -1.0460 ca         1 0T5      -0.098500
     21 C24         -6.0100     0.0930    -1.5190 ca         1 0T5      -0.108500
     22 C23         -6.2990    -1.1170    -0.8670 ca         1 0T5      -0.099000
     23 C22         -5.5510    -1.5010     0.2580 ca         1 0T5      -0.108500
     24 C21         -4.5180    -0.6750     0.7330 ca         1 0T5      -0.098500
     25 H11          3.8870    -1.5600    -0.4000 ha         1 0T5       0.171000
     26 H51          1.9650     2.2740     0.0940 ha         1 0T5       0.160000
     27 H31         -0.4020    -1.3490     0.1030 ha         1 0T5       0.157000
     28 H131        -1.8100    -0.2170     0.2870 hn         1 0T5       0.321500
     29 H121        -3.1010     2.3640    -0.0200 h1         1 0T5       0.075700
     30 H132        -3.2310     1.0060     2.7310 hc         1 0T5       0.047700
     31 H134        -2.5290     2.5920     2.3610 hc         1 0T5       0.047700
     32 H133        -4.2750     2.3390     2.1920 hc         1 0T5       0.047700
     33 H251        -4.7620     1.8540    -1.5620 ha         1 0T5       0.115000
     34 H241        -6.5870     0.3910    -2.3920 ha         1 0T5       0.117000
     35 H231        -7.0990    -1.7560    -1.2350 ha         1 0T5       0.117000
     36 H221        -5.7720    -2.4390     0.7620 ha         1 0T5       0.117000
     37 H211        -3.9450    -0.9890     1.6030 ha         1 0T5       0.115000
@<TRIPOS>BOND
     1     1     2 1   
     2     2     3 1   
     3     2     4 1   
     4     4     5 ar  
     5     4    12 ar  
     6     5     6 ar  
     7     5    25 1   
     8     6     7 1   
     9     6    11 ar  
    10     7     8 1   
    11     7     9 1   
    12     7    10 1   
    13    11    13 ar  
    14    11    26 1   
    15    12    13 ar  
    16    12    27 1   
    17    13    14 1   
    18    14    15 2   
    19    14    16 1   
    20    16    17 1   
    21    16    28 1   
    22    17    18 1   
    23    17    19 1   
    24    17    29 1   
    25    18    30 1   
    26    18    31 1   
    27    18    32 1   
    28    19    20 ar  
    29    19    24 ar  
    30    20    21 ar  
    31    20    33 1   
    32    21    22 ar  
    33    21    34 1   
    34    22    23 ar  
    35    22    35 1   
    36    23    24 ar  
    37    23    36 1   
    38    24    37 1   
@<TRIPOS>SUBSTRUCTURE
     1 0T5         1 TEMP              0 ****  ****    0 ROOT
