@<TRIPOS>MOLECULE
0T5
   37    38     1     0     0
SMALL
abcg2


@<TRIPOS>ATOM
      1 O38          0.9740    -3.4590     1.3560 o          1 0T5      -0.389000
      2 N8           1.9420    -2.9580     0.8390 no         1 0T5       0.697200
      3 O10          2.9740    -3.5420     0.6160 o          1 0T5      -0.389000
      4 C2           1.8590    -1.5530     0.4560 ca         1 0T5      -0.194200
      5 C1           2.9620    -0.9540    -0.1290 ca         1 0T5       0.014000
      6 C6           2.8750     0.3840    -0.4720 ca         1 0T5      -0.217300
      7 C7           4.0260     1.0910    -1.1250 c3         1 0T5       0.365300
      8 F28          4.3800     2.1820    -0.4370 f          1 0T5      -0.105000
      9 F27          5.1060     0.3180    -1.2320 f          1 0T5      -0.105000
     10 F29          3.7020     1.4990    -2.3570 f          1 0T5      -0.105000
     11 C5           1.7130     1.1020    -0.2240 ca         1 0T5       0.024000
     12 C3           0.6830    -0.8640     0.6930 ca         1 0T5      -0.005000
     13 C4           0.6100     0.4770     0.3430 ca         1 0T5      -0.164600
     14 C14         -0.6120     1.3060     0.6100 c          1 0T5       0.612700
     15 O15         -0.5050     2.4930     0.8750 o          1 0T5      -0.589100
     16 N13         -1.7820     0.6600     0.5270 ns         1 0T5      -0.497900
     17 C12         -3.0620     1.3150     0.7830 c3         1 0T5       0.164000
     18 C13         -3.3560     1.3900     2.2800 c3         1 0T5      -0.102100
     19 C20         -4.1470     0.5900     0.0240 ca         1 0T5      -0.112300
     20 C25         -4.8440     1.2360    -0.9920 ca         1 0T5      -0.098500
     21 C24         -5.8480     0.5780    -1.6920 ca         1 0T5      -0.108500
     22 C23         -6.1600    -0.7390    -1.3870 ca         1 0T5      -0.099000
     23 C22         -5.4660    -1.3940    -0.3770 ca         1 0T5      -0.108500
     24 C21         -4.4700    -0.7320     0.3270 ca         1 0T5      -0.098500
     25 H11          3.8640    -1.5220    -0.3060 ha         1 0T5       0.171000
     26 H51          1.6480     2.1530    -0.4760 ha         1 0T5       0.160000
     27 H31         -0.1520    -1.3590     1.1680 ha         1 0T5       0.157000
     28 H131        -1.8000    -0.2830     0.1740 hn         1 0T5       0.321500
     29 H121        -2.9910     2.3320     0.3940 h1         1 0T5       0.075700
     30 H132        -3.4440     0.3950     2.7160 hc         1 0T5       0.047700
     31 H134        -2.5640     1.9250     2.8030 hc         1 0T5       0.047700
     32 H133        -4.2930     1.9200     2.4510 hc         1 0T5       0.047700
     33 H251        -4.6020     2.2630    -1.2370 ha         1 0T5       0.115000
     34 H241        -6.3830     1.0970    -2.4770 ha         1 0T5       0.117000
     35 H231        -6.9390    -1.2560    -1.9320 ha         1 0T5       0.117000
     36 H221        -5.7040    -2.4210    -0.1330 ha         1 0T5       0.117000
     37 H211        -3.9480    -1.2550     1.1200 ha         1 0T5       0.115000
@<TRIPOS>BOND
     1     1     2 1   
     2     2     3 1   
     3     2     4 1   
     4     4     5 ar  
     5     4    12 ar  
     6     5     6 ar  
     7     5    25 1   
     8     6     7 1   
     9     6    11 ar  
    10     7     8 1   
    11     7     9 1   
    12     7    10 1   
    13    11    13 ar  
    14    11    26 1   
    15    12    13 ar  
    16    12    27 1   
    17    13    14 1   
    18    14    15 2   
    19    14    16 1   
    20    16    17 1   
    21    16    28 1   
    22    17    18 1   
    23    17    19 1   
    24    17    29 1   
    25    18    30 1   
    26    18    31 1   
    27    18    32 1   
    28    19    20 ar  
    29    19    24 ar  
    30    20    21 ar  
    31    20    33 1   
    32    21    22 ar  
    33    21    34 1   
    34    22    23 ar  
    35    22    35 1   
    36    23    24 ar  
    37    23    36 1   
    38    24    37 1   
@<TRIPOS>SUBSTRUCTURE
     1 0T5         1 TEMP              0 ****  ****    0 ROOT
