@<TRIPOS>MOLECULE
0T6
   40    43     1     0     0
SMALL
No Charge or Current Charge


@<TRIPOS>ATOM
      1 C1           1.5970     4.3350     0.9460 c3         1 0T6      -0.015900
      2 C2           1.3290     2.9200     0.5040 cc         1 0T6       0.097400
      3 C3           0.2230     2.4120    -0.1220 cd         1 0T6       0.219500
      4 N1          -0.9350     3.1530    -0.2950 nd         1 0T6      -0.255000
      5 N2          -2.0300     2.4460    -0.5390 nc         1 0T6      -0.249000
      6 C4          -1.9660     1.0370    -0.3460 ca         1 0T6       0.070000
      7 C5          -0.7400     0.3430    -0.1350 ca         1 0T6       0.060000
      8 N3           0.4430     1.0800    -0.2910 na         1 0T6      -0.123300
      9 C6           1.6230     0.7720     0.3900 cd         1 0T6       0.423400
     10 N4           2.1940     1.9010     0.8180 nc         1 0T6      -0.549300
     11 C7           2.3590    -0.5050     0.4590 ca         1 0T6      -0.099900
     12 C8           2.9650    -0.8780     1.6790 ca         1 0T6      -0.063000
     13 C9           3.6970    -2.0730     1.7810 ca         1 0T6      -0.115000
     14 C10          3.8510    -2.9010     0.6580 ca         1 0T6      -0.088000
     15 C11          3.2840    -2.5240    -0.5690 ca         1 0T6      -0.109000
     16 C12          2.5500    -1.3290    -0.6770 ca         1 0T6       0.138000
     17 Cl1          1.9170    -0.8920    -2.2650 cl         1 0T6      -0.185000
     18 C13         -0.7650    -1.0480     0.1090 ca         1 0T6      -0.216000
     19 C14         -1.9680    -1.7580     0.1300 ca         1 0T6       0.231100
     20 C15         -3.1780    -1.0900    -0.1110 ca         1 0T6      -0.324000
     21 C16         -3.1790     0.3000    -0.3520 ca         1 0T6       0.257100
     22 O1          -4.3620     0.9860    -0.5790 os         1 0T6      -0.296100
     23 C17         -5.6470     0.3400    -0.6020 c3         1 0T6       0.141900
     24 O2          -1.9030    -3.1130     0.3740 os         1 0T6      -0.331100
     25 C18         -3.0740    -3.9480     0.4120 c3         1 0T6       0.147900
     26 H1           2.6440     4.4690     1.2430 hc         1 0T6       0.053700
     27 H2           1.3850     5.0430     0.1360 hc         1 0T6       0.053700
     28 H3           0.9660     4.6000     1.8020 hc         1 0T6       0.053700
     29 H4           2.8560    -0.2430     2.5570 ha         1 0T6       0.131000
     30 H5           4.1470    -2.3550     2.7300 ha         1 0T6       0.122000
     31 H6           4.4200    -3.8260     0.7360 ha         1 0T6       0.120000
     32 H7           3.4200    -3.1540    -1.4440 ha         1 0T6       0.133000
     33 H8           0.1380    -1.6190     0.2730 ha         1 0T6       0.153000
     34 H9          -4.1090    -1.6440    -0.1070 ha         1 0T6       0.130000
     35 H10         -5.6870    -0.4230    -1.3890 h1         1 0T6       0.047700
     36 H11         -5.8630    -0.1340     0.3640 h1         1 0T6       0.047700
     37 H12         -6.4370     1.0750    -0.8020 h1         1 0T6       0.047700
     38 H13         -3.7640    -3.6170     1.1990 h1         1 0T6       0.046700
     39 H14         -3.6000    -3.9280    -0.5510 h1         1 0T6       0.046700
     40 H15         -2.7920    -4.9870     0.6230 h1         1 0T6       0.046700
@<TRIPOS>BOND
     1     1     2 1   
     2     1    26 1   
     3     1    27 1   
     4     1    28 1   
     5     2     3 2   
     6     2    10 1   
     7     3     4 1   
     8     3     8 1   
     9     4     5 2   
    10     5     6 1   
    11     6     7 ar  
    12     6    21 ar  
    13     7     8 1   
    14     7    18 ar  
    15     8     9 1   
    16     9    10 2   
    17     9    11 1   
    18    11    12 ar  
    19    11    16 ar  
    20    12    13 ar  
    21    12    29 1   
    22    13    14 ar  
    23    13    30 1   
    24    14    15 ar  
    25    14    31 1   
    26    15    16 ar  
    27    15    32 1   
    28    16    17 1   
    29    18    19 ar  
    30    18    33 1   
    31    19    20 ar  
    32    19    24 1   
    33    20    21 ar  
    34    20    34 1   
    35    21    22 1   
    36    22    23 1   
    37    23    35 1   
    38    23    36 1   
    39    23    37 1   
    40    24    25 1   
    41    25    38 1   
    42    25    39 1   
    43    25    40 1   
@<TRIPOS>SUBSTRUCTURE
     1 0T6         1 TEMP              0 ****  ****    0 ROOT
