@<TRIPOS>MOLECULE
0T6
   40    43     1     0     0
SMALL
abcg2


@<TRIPOS>ATOM
      1 C1           1.7470     4.4440     0.5670 c3         1 0T6      -0.015900
      2 C2           1.3870     3.0060     0.4900 cc         1 0T6       0.097400
      3 C3           0.1420     2.4530     0.2810 cd         1 0T6       0.219500
      4 N1          -1.0560     3.0430     0.0730 nd         1 0T6      -0.255000
      5 N2          -2.0850     2.3290    -0.0960 nc         1 0T6      -0.249000
      6 C4          -1.9940     0.9600    -0.0350 ca         1 0T6       0.070000
      7 C5          -0.7960     0.2570     0.1910 ca         1 0T6       0.060000
      8 N3           0.3200     1.0750     0.2990 na         1 0T6      -0.123300
      9 C6           1.6450     0.8630     0.4910 cd         1 0T6       0.423400
     10 N4           2.2850     2.0070     0.6170 nc         1 0T6      -0.549300
     11 C7           2.3180    -0.4410     0.5270 ca         1 0T6      -0.099900
     12 C8           2.9080    -0.8830     1.7080 ca         1 0T6      -0.063000
     13 C9           3.5860    -2.0920     1.7530 ca         1 0T6      -0.115000
     14 C10          3.6830    -2.8710     0.6090 ca         1 0T6      -0.088000
     15 C11          3.1160    -2.4430    -0.5830 ca         1 0T6      -0.109000
     16 C12          2.4470    -1.2310    -0.6150 ca         1 0T6       0.138000
     17 CL1          1.7570    -0.6860    -2.1050 cl         1 0T6      -0.185000
     18 C13         -0.7660    -1.1170     0.3110 ca         1 0T6      -0.216000
     19 C14         -1.9590    -1.8220     0.1690 ca         1 0T6       0.231100
     20 C15         -3.1690    -1.1650    -0.0830 ca         1 0T6      -0.324000
     21 C16         -3.1910     0.2160    -0.1810 ca         1 0T6       0.257100
     22 O1          -4.2900     0.9260    -0.4060 os         1 0T6      -0.296100
     23 C17         -5.5250     0.2480    -0.5730 c3         1 0T6       0.141900
     24 O2          -1.8590    -3.1460     0.2880 os         1 0T6      -0.331100
     25 C18         -3.0150    -3.9520     0.1250 c3         1 0T6       0.147900
     26 H1           2.1240     4.7020     1.5570 hc         1 0T6       0.053700
     27 H2           2.5260     4.6930    -0.1540 hc         1 0T6       0.053700
     28 H3           0.8820     5.0730     0.3630 hc         1 0T6       0.053700
     29 H4           2.8210    -0.2740     2.5980 ha         1 0T6       0.131000
     30 H5           4.0330    -2.4250     2.6790 ha         1 0T6       0.122000
     31 H6           4.2070    -3.8170     0.6370 ha         1 0T6       0.120000
     32 H7           3.2000    -3.0420    -1.4790 ha         1 0T6       0.133000
     33 H8           0.1420    -1.6610     0.5220 ha         1 0T6       0.153000
     34 H9          -4.0800    -1.7330    -0.1920 ha         1 0T6       0.130000
     35 H10         -5.5010    -0.4280    -1.4310 h1         1 0T6       0.047700
     36 H11         -5.8010    -0.3140     0.3210 h1         1 0T6       0.047700
     37 H12         -6.2710     1.0180    -0.7510 h1         1 0T6       0.047700
     38 H13         -3.7720    -3.7320     0.8800 h1         1 0T6       0.046700
     39 H14         -3.4520    -3.8350    -0.8690 h1         1 0T6       0.046700
     40 H15         -2.6850    -4.9800     0.2460 h1         1 0T6       0.046700
@<TRIPOS>BOND
     1     1     2 1   
     2     1    26 1   
     3     1    27 1   
     4     1    28 1   
     5     2     3 2   
     6     2    10 1   
     7     3     4 1   
     8     3     8 1   
     9     4     5 2   
    10     5     6 1   
    11     6     7 ar  
    12     6    21 ar  
    13     7     8 1   
    14     7    18 ar  
    15     8     9 1   
    16     9    10 2   
    17     9    11 1   
    18    11    12 ar  
    19    11    16 ar  
    20    12    13 ar  
    21    12    29 1   
    22    13    14 ar  
    23    13    30 1   
    24    14    15 ar  
    25    14    31 1   
    26    15    16 ar  
    27    15    32 1   
    28    16    17 1   
    29    18    19 ar  
    30    18    33 1   
    31    19    20 ar  
    32    19    24 1   
    33    20    21 ar  
    34    20    34 1   
    35    21    22 1   
    36    22    23 1   
    37    23    35 1   
    38    23    36 1   
    39    23    37 1   
    40    24    25 1   
    41    25    38 1   
    42    25    39 1   
    43    25    40 1   
@<TRIPOS>SUBSTRUCTURE
     1 0T6         1 TEMP              0 ****  ****    0 ROOT
