@<TRIPOS>MOLECULE
0T7
   54    58     1     0     0
SMALL
No Charge or Current Charge


@<TRIPOS>ATOM
      1 C1          -4.0350     4.8470    -1.0860 c3         1 0T7      -0.090100
      2 C2          -4.4010     3.3510    -1.1110 c3         1 0T7      -0.079400
      3 C3          -4.6130     2.7540     0.3020 c3         1 0T7      -0.087700
      4 C4          -4.8650     1.2650     0.2970 cc         1 0T7       0.378800
      5 N1          -6.0980     0.7710     0.3810 nd         1 0T7      -0.578300
      6 C5          -5.9900    -0.6080     0.3800 cd         1 0T7       0.081400
      7 C6          -4.6610    -0.9600     0.2960 cc         1 0T7      -0.235000
      8 N2          -3.9640     0.2000     0.2270 na         1 0T7       0.067200
      9 C7          -2.5640     0.1460     0.1240 ca         1 0T7      -0.088000
     10 C8          -1.7180     1.2780     0.0080 ca         1 0T7      -0.081000
     11 C9          -0.3250     1.1320    -0.0880 ca         1 0T7      -0.178000
     12 C10          0.2530    -0.1480    -0.0750 ca         1 0T7       0.146100
     13 C11         -0.5730    -1.2710     0.0270 ca         1 0T7      -0.109000
     14 C12         -1.9700    -1.1510     0.1220 ca         1 0T7       0.283000
     15 N3          -2.6780    -2.3740     0.2040 nd         1 0T7      -0.685000
     16 C13         -4.0010    -2.2350     0.2820 cc         1 0T7       0.449300
     17 C14         -4.8060    -3.5040     0.3640 c3         1 0T7      -0.151400
     18 O1           1.6150    -0.3520    -0.1660 os         1 0T7      -0.343100
     19 C15          2.5530     0.7400    -0.2790 c3         1 0T7       0.108300
     20 C16          3.9780     0.1950    -0.3750 ca         1 0T7       0.362300
     21 C17          4.3390    -0.6780    -1.4180 ca         1 0T7      -0.139000
     22 C18          5.6550    -1.1600    -1.4860 ca         1 0T7      -0.064000
     23 C19          6.5690    -0.7460    -0.5020 ca         1 0T7      -0.080000
     24 C20          7.9000    -1.2060    -0.5350 ca         1 0T7      -0.091000
     25 C21          8.8110    -0.7910     0.4490 ca         1 0T7      -0.105000
     26 C22          8.3950     0.0840     1.4640 ca         1 0T7      -0.102000
     27 C23          7.0660     0.5430     1.4960 ca         1 0T7      -0.083000
     28 C24          6.1360     0.1390     0.5190 ca         1 0T7       0.275000
     29 N4           4.8620     0.5970     0.5740 nb         1 0T7      -0.675000
     30 C25         -7.2290    -1.4650     0.4740 c3         1 0T7      -0.017900
     31 H1          -3.9080     5.2270    -2.1070 hc         1 0T7       0.034700
     32 H2          -4.8240     5.4320    -0.5980 hc         1 0T7       0.034700
     33 H3          -3.0970     5.0080    -0.5410 hc         1 0T7       0.034700
     34 H4          -5.3200     3.2180    -1.6960 hc         1 0T7       0.048700
     35 H5          -3.6160     2.7990    -1.6420 hc         1 0T7       0.048700
     36 H6          -3.7900     3.0060     0.9780 hc         1 0T7       0.064700
     37 H7          -5.4850     3.2510     0.7440 hc         1 0T7       0.064700
     38 H8          -2.0960     2.2880    -0.0190 ha         1 0T7       0.128000
     39 H9           0.2860     2.0260    -0.1730 ha         1 0T7       0.126000
     40 H10         -0.1220    -2.2580     0.0300 ha         1 0T7       0.148000
     41 H11         -5.4950    -3.5850    -0.4830 hc         1 0T7       0.059700
     42 H12         -4.1610    -4.3900     0.3430 hc         1 0T7       0.059700
     43 H13         -5.3790    -3.5430     1.2960 hc         1 0T7       0.059700
     44 H14          2.3470     1.3330    -1.1790 h1         1 0T7       0.058700
     45 H15          2.4740     1.4050     0.5910 h1         1 0T7       0.058700
     46 H16          3.6030    -0.9750    -2.1600 ha         1 0T7       0.140000
     47 H17          5.9550    -1.8370    -2.2840 ha         1 0T7       0.121000
     48 H18          8.2280    -1.8850    -1.3200 ha         1 0T7       0.116000
     49 H19          9.8390    -1.1470     0.4240 ha         1 0T7       0.116000
     50 H20          9.1000     0.4070     2.2270 ha         1 0T7       0.117000
     51 H21          6.7510     1.2200     2.2850 ha         1 0T7       0.130000
     52 H22         -7.3260    -2.1220    -0.3980 hc         1 0T7       0.048367
     53 H23         -7.2170    -2.0850     1.3770 hc         1 0T7       0.048367
     54 H24         -8.1360    -0.8500     0.5170 hc         1 0T7       0.048367
@<TRIPOS>BOND
     1     1     2 1   
     2     1    31 1   
     3     1    32 1   
     4     1    33 1   
     5     2     3 1   
     6     2    34 1   
     7     2    35 1   
     8     3     4 1   
     9     3    36 1   
    10     3    37 1   
    11     4     5 2   
    12     4     8 1   
    13     5     6 1   
    14     6     7 2   
    15     6    30 1   
    16     7     8 1   
    17     7    16 1   
    18     8     9 1   
    19     9    10 ar  
    20     9    14 ar  
    21    10    11 ar  
    22    10    38 1   
    23    11    12 ar  
    24    11    39 1   
    25    12    13 ar  
    26    12    18 1   
    27    13    14 ar  
    28    13    40 1   
    29    14    15 1   
    30    15    16 2   
    31    16    17 1   
    32    17    41 1   
    33    17    42 1   
    34    17    43 1   
    35    18    19 1   
    36    19    20 1   
    37    19    44 1   
    38    19    45 1   
    39    20    21 ar  
    40    20    29 ar  
    41    21    22 ar  
    42    21    46 1   
    43    22    23 ar  
    44    22    47 1   
    45    23    24 ar  
    46    23    28 ar  
    47    24    25 ar  
    48    24    48 1   
    49    25    26 ar  
    50    25    49 1   
    51    26    27 ar  
    52    26    50 1   
    53    27    28 ar  
    54    27    51 1   
    55    28    29 ar  
    56    30    52 1   
    57    30    53 1   
    58    30    54 1   
@<TRIPOS>SUBSTRUCTURE
     1 0T7         1 TEMP              0 ****  ****    0 ROOT
