@<TRIPOS>MOLECULE
0T7
   54    58     1     0     0
SMALL
abcg2


@<TRIPOS>ATOM
      1 C1          -3.6000     4.7470    -0.8380 c3         1 0T7      -0.090100
      2 C2          -3.9400     3.2700    -0.9620 c3         1 0T7      -0.079400
      3 C3          -4.4680     2.6940     0.3560 c3         1 0T7      -0.087700
      4 C4          -4.8100     1.2470     0.2730 cc         1 0T7       0.378800
      5 N1          -6.0540     0.8290     0.1550 nd         1 0T7      -0.578300
      6 C5          -6.0360    -0.5140     0.0310 cd         1 0T7       0.081400
      7 C6          -4.7280    -0.9510     0.0730 cc         1 0T7      -0.235000
      8 N2          -3.9530     0.1950     0.2330 na         1 0T7       0.067200
      9 C7          -2.5600     0.0820     0.3200 ca         1 0T7      -0.088000
     10 C8          -1.6900     1.1430     0.5340 ca         1 0T7      -0.081000
     11 C9          -0.3200     0.9490     0.5850 ca         1 0T7      -0.178000
     12 C10          0.2110    -0.3290     0.4210 ca         1 0T7       0.146100
     13 C11         -0.6500    -1.3980     0.2350 ca         1 0T7      -0.109000
     14 C12         -2.0300    -1.2170     0.1870 ca         1 0T7       0.283000
     15 N3          -2.8030    -2.3460     0.0140 nd         1 0T7      -0.685000
     16 C13         -4.0860    -2.2220    -0.0320 cc         1 0T7       0.449300
     17 C14         -4.9150    -3.4510    -0.2120 c3         1 0T7      -0.151400
     18 O1           1.5290    -0.6110     0.4380 os         1 0T7      -0.343100
     19 C15          2.4490     0.4500     0.4690 c3         1 0T7       0.108300
     20 C16          3.8330    -0.0740     0.2010 ca         1 0T7       0.362300
     21 C17          4.0560    -1.3540    -0.3560 ca         1 0T7      -0.139000
     22 C18          5.3380    -1.7340    -0.6290 ca         1 0T7      -0.064000
     23 C19          6.4040    -0.8490    -0.3670 ca         1 0T7      -0.080000
     24 C20          7.7550    -1.1580    -0.6350 ca         1 0T7      -0.091000
     25 C21          8.7390    -0.2480    -0.3650 ca         1 0T7      -0.105000
     26 C22          8.4110     1.0100     0.1830 ca         1 0T7      -0.102000
     27 C23          7.1090     1.3340     0.4570 ca         1 0T7      -0.083000
     28 C24          6.0740     0.4100     0.1900 ca         1 0T7       0.275000
     29 N4           4.8000     0.7630     0.4730 nb         1 0T7      -0.675000
     30 C25         -7.2980    -1.2910    -0.1280 c3         1 0T7      -0.017900
     31 H1          -3.2570     5.1520    -1.7890 hc         1 0T7       0.034700
     32 H2          -4.4680     5.3280    -0.5250 hc         1 0T7       0.034700
     33 H3          -2.8100     4.9160    -0.1040 hc         1 0T7       0.034700
     34 H4          -4.7010     3.1260    -1.7320 hc         1 0T7       0.048700
     35 H5          -3.0600     2.7160    -1.2990 hc         1 0T7       0.048700
     36 H6          -3.7770     2.8980     1.1780 hc         1 0T7       0.064700
     37 H7          -5.3940     3.2070     0.6200 hc         1 0T7       0.064700
     38 H8          -2.0490     2.1480     0.6760 ha         1 0T7       0.128000
     39 H9           0.3070     1.8120     0.7570 ha         1 0T7       0.126000
     40 H10         -0.2610    -2.4010     0.1190 ha         1 0T7       0.148000
     41 H11         -5.4790    -3.4120    -1.1450 hc         1 0T7       0.059700
     42 H12         -4.2770    -4.3300    -0.2350 hc         1 0T7       0.059700
     43 H13         -5.6360    -3.5680     0.5980 hc         1 0T7       0.059700
     44 H14          2.2160     1.1970    -0.3010 h1         1 0T7       0.058700
     45 H15          2.4380     0.9650     1.4360 h1         1 0T7       0.058700
     46 H16          3.2310    -2.0180    -0.5640 ha         1 0T7       0.140000
     47 H17          5.5410    -2.7100    -1.0530 ha         1 0T7       0.121000
     48 H18          8.0050    -2.1240    -1.0550 ha         1 0T7       0.116000
     49 H19          9.7730    -0.4880    -0.5700 ha         1 0T7       0.116000
     50 H20          9.2000     1.7210     0.3900 ha         1 0T7       0.117000
     51 H21          6.8490     2.2940     0.8830 ha         1 0T7       0.130000
     52 H22         -7.3210    -1.8480    -1.0650 hc         1 0T7       0.048367
     53 H23         -7.4410    -2.0120     0.6780 hc         1 0T7       0.048367
     54 H24         -8.1460    -0.6110    -0.1210 hc         1 0T7       0.048367
@<TRIPOS>BOND
     1     1     2 1   
     2     1    31 1   
     3     1    32 1   
     4     1    33 1   
     5     2     3 1   
     6     2    34 1   
     7     2    35 1   
     8     3     4 1   
     9     3    36 1   
    10     3    37 1   
    11     4     5 2   
    12     4     8 1   
    13     5     6 1   
    14     6     7 2   
    15     6    30 1   
    16     7     8 1   
    17     7    16 1   
    18     8     9 1   
    19     9    10 ar  
    20     9    14 ar  
    21    10    11 ar  
    22    10    38 1   
    23    11    12 ar  
    24    11    39 1   
    25    12    13 ar  
    26    12    18 1   
    27    13    14 ar  
    28    13    40 1   
    29    14    15 1   
    30    15    16 2   
    31    16    17 1   
    32    17    41 1   
    33    17    42 1   
    34    17    43 1   
    35    18    19 1   
    36    19    20 1   
    37    19    44 1   
    38    19    45 1   
    39    20    21 ar  
    40    20    29 ar  
    41    21    22 ar  
    42    21    46 1   
    43    22    23 ar  
    44    22    47 1   
    45    23    24 ar  
    46    23    28 ar  
    47    24    25 ar  
    48    24    48 1   
    49    25    26 ar  
    50    25    49 1   
    51    26    27 ar  
    52    26    50 1   
    53    27    28 ar  
    54    27    51 1   
    55    28    29 ar  
    56    30    52 1   
    57    30    53 1   
    58    30    54 1   
@<TRIPOS>SUBSTRUCTURE
     1 0T7         1 TEMP              0 ****  ****    0 ROOT
