@<TRIPOS>MOLECULE
0T8
   66    69     1     0     0
SMALL
bcc


@<TRIPOS>ATOM
      1 N1          -1.9670     1.7730     0.1600 nb         1 0T8      -0.879000
      2 N3          -1.4500    -0.5380    -0.1080 nb         1 0T8      -0.814000
      3 C4           1.7530     1.4030    -0.2050 c          1 0T8       0.714700
      4 C5          -2.2950     0.4840     0.0870 ca         1 0T8       0.962900
      5 C6          -1.3140     4.4760     0.2380 c5         1 0T8       0.231500
      6 C7          -0.6880     5.7350     0.8390 c5         1 0T8      -0.096400
      7 C8          -1.8870     4.9730    -1.0900 c5         1 0T8      -0.096400
      8 C10         -4.1520    -1.1320     0.0490 c3         1 0T8       0.243800
      9 C13          4.7440    -0.7700     0.1360 c3         1 0T8      -0.118400
     10 C15          6.2540    -0.6300    -0.0220 c3         1 0T8       0.113000
     11 C20          7.3820    -2.6790    -0.7900 c          1 0T8       0.704500
     12 C21          7.3210    -2.3170     1.5270 c5         1 0T8       0.098000
     13 C22         -7.1700    -4.1820    -1.2540 ca         1 0T8       0.402200
     14 C24          8.1350    -3.8280    -0.1540 c5         1 0T8      -0.168400
     15 C26          7.7110    -3.7800     1.3110 c5         1 0T8      -0.092400
     16 O25          7.2150    -2.4900    -1.9860 o          1 0T8      -0.626500
     17 N6           6.9480    -1.8740     0.1980 n          1 0T8      -0.488800
     18 C9           4.0490     0.5690    -0.0460 c3         1 0T8       0.106000
     19 N4           2.6150     0.4110     0.0790 ns         1 0T8      -0.567900
     20 O1           2.1570     2.5150    -0.5560 o          1 0T8      -0.649100
     21 C2           0.3170     1.0890    -0.0910 ca         1 0T8      -0.534200
     22 C1          -0.6840     2.1030     0.0610 ca         1 0T8       0.798200
     23 N2          -0.3600     3.3980     0.1350 nu         1 0T8      -0.850900
     24 C12         -2.5260     6.3050    -0.7040 c5         1 0T8      -0.077900
     25 C11         -1.6190     6.8830     0.4070 c5         1 0T8      -0.077900
     26 C3          -0.1740    -0.2000    -0.1890 ca         1 0T8       0.530200
     27 N5          -3.5990     0.1920     0.2120 nu         1 0T8      -0.868900
     28 C14         -5.6530    -1.0950     0.3200 c3         1 0T8      -0.057100
     29 C16         -6.2620    -2.4520     0.1330 ca         1 0T8      -0.042300
     30 C19         -6.4310    -3.3270     1.2000 ca         1 0T8      -0.243300
     31 C23         -6.9660    -4.5850     0.9680 ca         1 0T8       0.402200
     32 N7          -7.3330    -5.0160    -0.2330 nb         1 0T8      -0.663000
     33 C18         -6.6460    -2.9050    -1.1250 ca         1 0T8      -0.243300
     34 H6          -2.1400     4.1430     0.8710 h1         1 0T8       0.078700
     35 H7          -0.5700     5.6630     1.9200 hc         1 0T8       0.051700
     36 H7A          0.3110     5.8800     0.4160 hc         1 0T8       0.051700
     37 H8          -1.0670     5.1250    -1.7990 hc         1 0T8       0.051700
     38 H8A         -2.5880     4.2680    -1.5390 hc         1 0T8       0.051700
     39 H10         -3.9680    -1.5100    -0.9630 h1         1 0T8       0.058700
     40 H10A        -3.6700    -1.8290     0.7380 h1         1 0T8       0.058700
     41 H13          4.3680    -1.4860    -0.6000 hc         1 0T8       0.051700
     42 H13A         4.5130    -1.1730     1.1270 hc         1 0T8       0.051700
     43 H15          6.4920    -0.2680    -1.0230 h1         1 0T8       0.058700
     44 H15A         6.6380     0.1100     0.6840 h1         1 0T8       0.058700
     45 H21A         8.1550    -1.7190     1.9090 h1         1 0T8       0.045200
     46 H22         -7.4740    -4.5450    -2.2300 h4         1 0T8       0.020100
     47 H24          7.9090    -4.7710    -0.6500 hc         1 0T8       0.077200
     48 H24A         9.2070    -3.6440    -0.2770 hc         1 0T8       0.077200
     49 H26          8.4900    -4.1030     1.9980 hc         1 0T8       0.056700
     50 H26A         6.8410    -4.4200     1.4680 hc         1 0T8       0.056700
     51 H9           4.4250     1.2870     0.6900 h1         1 0T8       0.052700
     52 H9A          4.2800     0.9770    -1.0330 h1         1 0T8       0.052700
     53 HN4          2.2820    -0.4100     0.5570 hn         1 0T8       0.313500
     54 HN2          0.6000     3.6230    -0.0880 hn         1 0T8       0.475800
     55 H12         -2.6280     6.9810    -1.5530 hc         1 0T8       0.042950
     56 H12A        -3.5320     6.1320    -0.3160 hc         1 0T8       0.042950
     57 H11         -2.2140     7.2470     1.2450 hc         1 0T8       0.042950
     58 H11A        -1.0410     7.7330     0.0450 hc         1 0T8       0.042950
     59 H3           0.5070    -1.0260    -0.3710 h4         1 0T8       0.012100
     60 HN5         -4.2280     0.9750     0.2690 hn         1 0T8       0.447800
     61 H14         -5.8310    -0.7420     1.3380 hc         1 0T8       0.056700
     62 H14A        -6.1260    -0.3810    -0.3600 hc         1 0T8       0.056700
     63 H19         -6.1550    -3.0350     2.2060 ha         1 0T8       0.141000
     64 H23         -7.1070    -5.2720     1.7940 h4         1 0T8       0.020100
     65 H18         -6.5450    -2.2730    -1.9990 ha         1 0T8       0.141000
     66 H21          6.4890    -2.2070     2.2240 h1         1 0T8       0.045200
@<TRIPOS>BOND
     1     1     4 ar  
     2     1    22 ar  
     3     2     4 ar  
     4     2    26 ar  
     5     3    19 1   
     6     3    20 2   
     7     3    21 1   
     8     4    27 1   
     9     5     6 1   
    10     5     7 1   
    11     5    23 1   
    12     5    34 1   
    13     6    25 1   
    14     6    35 1   
    15     6    36 1   
    16     7    24 1   
    17     7    37 1   
    18     7    38 1   
    19     8    27 1   
    20     8    28 1   
    21     8    39 1   
    22     8    40 1   
    23     9    10 1   
    24     9    18 1   
    25     9    41 1   
    26     9    42 1   
    27    10    17 1   
    28    10    43 1   
    29    10    44 1   
    30    11    14 1   
    31    11    16 2   
    32    11    17 1   
    33    12    15 1   
    34    12    17 1   
    35    12    45 1   
    36    12    66 1   
    37    13    32 ar  
    38    13    33 ar  
    39    13    46 1   
    40    14    15 1   
    41    14    47 1   
    42    14    48 1   
    43    15    49 1   
    44    15    50 1   
    45    18    19 1   
    46    18    51 1   
    47    18    52 1   
    48    19    53 1   
    49    21    22 ar  
    50    21    26 ar  
    51    22    23 1   
    52    23    54 1   
    53    24    25 1   
    54    24    55 1   
    55    24    56 1   
    56    25    57 1   
    57    25    58 1   
    58    26    59 1   
    59    27    60 1   
    60    28    29 1   
    61    28    61 1   
    62    28    62 1   
    63    29    30 ar  
    64    29    33 ar  
    65    30    31 ar  
    66    30    63 1   
    67    31    32 ar  
    68    31    64 1   
    69    33    65 1   
@<TRIPOS>SUBSTRUCTURE
     1 0T8         1 TEMP              0 ****  ****    0 ROOT
