@<TRIPOS>MOLECULE
0T8
   66    69     1     0     0
SMALL
No Charge or Current Charge


@<TRIPOS>ATOM
      1 N1          -1.8820     1.1510     0.8590 nb         1 0T8      -0.353000
      2 N3          -1.7430    -0.8190    -0.4920 nb         1 0T8      -0.288000
      3 C4           1.6420     0.8560    -0.5010 c          1 0T8       0.647700
      4 C5          -2.3860     0.0500     0.3010 ca         1 0T8       0.436900
      5 C6          -0.8610     3.7820     0.8790 c5         1 0T8       0.231500
      6 C7          -0.1090     4.9170     1.6090 c5         1 0T8      -0.096400
      7 C8          -0.5410     4.1630    -0.5890 c5         1 0T8      -0.096400
      8 C10         -4.5390    -1.3220     0.1190 c3         1 0T8       0.243800
      9 C13          4.5890    -0.5470    -0.6890 c3         1 0T8      -0.118400
     10 C15          6.0780    -0.4950    -1.0840 c3         1 0T8       0.113000
     11 C20          7.4060    -2.4120    -0.1810 c          1 0T8       0.562000
     12 C21          7.2750    -0.4560     1.2310 c5         1 0T8       0.098000
     13 C22         -8.3730    -3.3840    -1.4000 ca         1 0T8       0.336900
     14 C24          8.2820    -2.6240     1.0500 c5         1 0T8      -0.168400
     15 C26          7.6190    -1.7010     2.1060 c5         1 0T8      -0.092400
     16 O25          6.9700    -3.2350    -0.9740 o          1 0T8      -0.551000
     17 N6           6.9630    -1.0920    -0.0660 n          1 0T8      -0.421800
     18 C9           3.6690     0.0620    -1.7640 c3         1 0T8       0.106000
     19 N4           2.2580    -0.0030    -1.3790 ns         1 0T8      -0.500900
     20 O1           2.2540     1.7810     0.0140 o          1 0T8      -0.649100
     21 C2           0.1950     0.5820    -0.2130 ca         1 0T8      -0.403600
     22 C1          -0.5940     1.4200     0.5940 ca         1 0T8       0.469900
     23 N2          -0.0660     2.5620     1.1730 nu         1 0T8      -0.906100
     24 C12         -0.9270     5.6710    -0.6000 c5         1 0T8      -0.077900
     25 C11         -0.6690     6.1640     0.8650 c5         1 0T8      -0.077900
     26 C3          -0.4520    -0.5500    -0.7460 ca         1 0T8       0.201900
     27 N5          -3.7150    -0.1940     0.5880 nu         1 0T8      -0.924100
     28 C14         -5.9750    -1.2210     0.6670 c3         1 0T8      -0.057100
     29 C16         -6.8470    -2.3760     0.1960 ca         1 0T8      -0.042300
     30 C19         -6.9410    -3.5670     0.9370 ca         1 0T8      -0.160000
     31 C23         -7.7550    -4.6120     0.4640 ca         1 0T8       0.336900
     32 N7          -8.4640    -4.5300    -0.6860 nb         1 0T8      -0.663000
     33 C18         -7.5830    -2.2930    -0.9990 ca         1 0T8      -0.160000
     34 H6          -1.9350     3.7440     1.1200 h1         1 0T8       0.078700
     35 H7          -0.3220     4.9400     2.6840 hc         1 0T8       0.051700
     36 H7A          0.9800     4.8510     1.4910 hc         1 0T8       0.051700
     37 H8           0.5200     4.0330    -0.8380 hc         1 0T8       0.051700
     38 H8A         -1.1210     3.5790    -1.3130 hc         1 0T8       0.051700
     39 H10         -4.5750    -1.3320    -0.9800 h1         1 0T8       0.058700
     40 H10A        -4.0970    -2.2740     0.4460 h1         1 0T8       0.058700
     41 H13          4.3000    -1.5900    -0.5150 hc         1 0T8       0.051700
     42 H13A         4.4480    -0.0100     0.2570 hc         1 0T8       0.051700
     43 H15          6.2200    -1.0120    -2.0430 h1         1 0T8       0.058700
     44 H15A         6.3740     0.5520    -1.2300 h1         1 0T8       0.058700
     45 H21A         8.1360     0.2190     1.1310 h1         1 0T8       0.045200
     46 H22         -8.9510    -3.3400    -2.3230 h4         1 0T8       0.020100
     47 H24          8.3550    -3.6820     1.3220 hc         1 0T8       0.077200
     48 H24A         9.2780    -2.2260     0.8280 hc         1 0T8       0.077200
     49 H26          8.2780    -1.4610     2.9480 hc         1 0T8       0.056700
     50 H26A         6.7090    -2.1580     2.5130 hc         1 0T8       0.056700
     51 H9           3.9450     1.1110    -1.9390 h1         1 0T8       0.052700
     52 H9A          3.7980    -0.4830    -2.7080 h1         1 0T8       0.052700
     53 HN4          1.6870    -0.7400    -1.7710 hn         1 0T8       0.313500
     54 HN2          0.9400     2.5990     0.9730 hn         1 0T8       0.531000
     55 H12         -0.3370     6.2320    -1.3340 hc         1 0T8       0.042950
     56 H12A        -1.9810     5.8060    -0.8720 hc         1 0T8       0.042950
     57 H11         -1.6030     6.5080     1.3260 hc         1 0T8       0.042950
     58 H11A         0.0310     7.0060     0.9010 hc         1 0T8       0.042950
     59 H3           0.0580    -1.2690    -1.3840 h4         1 0T8       0.012100
     60 HN5         -4.1520     0.4940     1.2010 hn         1 0T8       0.503000
     61 H14         -5.9420    -1.2000     1.7640 hc         1 0T8       0.056700
     62 H14A        -6.4150    -0.2670     0.3510 hc         1 0T8       0.056700
     63 H19         -6.3940    -3.6910     1.8670 ha         1 0T8       0.123000
     64 H23         -7.8410    -5.5430     1.0230 h4         1 0T8       0.020100
     65 H18         -7.5490    -1.3980    -1.6150 ha         1 0T8       0.123000
     66 H21          6.4280     0.1140     1.6370 h1         1 0T8       0.045200
@<TRIPOS>BOND
     1     1     4 ar  
     2     1    22 ar  
     3     2     4 ar  
     4     2    26 ar  
     5     3    19 1   
     6     3    20 2   
     7     3    21 1   
     8     4    27 1   
     9     5     6 1   
    10     5     7 1   
    11     5    23 1   
    12     5    34 1   
    13     6    25 1   
    14     6    35 1   
    15     6    36 1   
    16     7    24 1   
    17     7    37 1   
    18     7    38 1   
    19     8    27 1   
    20     8    28 1   
    21     8    39 1   
    22     8    40 1   
    23     9    10 1   
    24     9    18 1   
    25     9    41 1   
    26     9    42 1   
    27    10    17 1   
    28    10    43 1   
    29    10    44 1   
    30    11    14 1   
    31    11    16 2   
    32    11    17 1   
    33    12    15 1   
    34    12    17 1   
    35    12    45 1   
    36    12    66 1   
    37    13    32 ar  
    38    13    33 ar  
    39    13    46 1   
    40    14    15 1   
    41    14    47 1   
    42    14    48 1   
    43    15    49 1   
    44    15    50 1   
    45    18    19 1   
    46    18    51 1   
    47    18    52 1   
    48    19    53 1   
    49    21    22 ar  
    50    21    26 ar  
    51    22    23 1   
    52    23    54 1   
    53    24    25 1   
    54    24    55 1   
    55    24    56 1   
    56    25    57 1   
    57    25    58 1   
    58    26    59 1   
    59    27    60 1   
    60    28    29 1   
    61    28    61 1   
    62    28    62 1   
    63    29    30 ar  
    64    29    33 ar  
    65    30    31 ar  
    66    30    63 1   
    67    31    32 ar  
    68    31    64 1   
    69    33    65 1   
@<TRIPOS>SUBSTRUCTURE
     1 0T8         1 TEMP              0 ****  ****    0 ROOT
