@<TRIPOS>MOLECULE
0T9
   75    78     1     0     0
SMALL
bcc


@<TRIPOS>ATOM
      1 C2           6.7760    -1.3780    -0.5120 c6         1 0T9      -0.071400
      2 C4           5.1550     0.9570     0.1170 c2         1 0T9      -0.105400
      3 C5           4.5060    -0.4110     0.2490 c6         1 0T9       0.003200
      4 C6           5.2610    -1.4010    -0.6650 c6         1 0T9      -0.067400
      5 C8           3.0270    -0.3480    -0.2090 c6         1 0T9      -0.046700
      6 C16          0.0140    -0.6470     1.8410 c3         1 0T9      -0.084100
      7 C14          0.0750    -0.4440     0.3240 c5         1 0T9      -0.033000
      8 C13          0.7880    -1.6100    -0.3580 c6         1 0T9      -0.060400
      9 C12          2.2680    -1.6580     0.0340 c6         1 0T9      -0.072400
     10 C7           4.6320    -0.8630     1.7130 c3         1 0T9      -0.080100
     11 C1           7.3150     0.0160    -0.7650 c6         1 0T9       0.150100
     12 O1           8.7200    -0.0100    -0.6180 oh         1 0T9      -0.597800
     13 C3           6.6580     1.0030     0.1970 c6         1 0T9      -0.074200
     14 C11          4.4530     2.0770    -0.0520 c2         1 0T9      -0.168200
     15 C10          2.9630     2.1520    -0.0990 c6         1 0T9      -0.038200
     16 C9           2.2920     0.8680     0.3740 c6         1 0T9      -0.041700
     17 C15          0.8420     0.8360    -0.0720 c5         1 0T9      -0.063700
     18 C21         -0.0740     1.9780     0.3430 c5         1 0T9      -0.181400
     19 C18         -1.4540     1.3820     0.1720 c          1 0T9       0.575100
     20 O2          -2.5000     1.9620     0.3450 o          1 0T9      -0.519100
     21 C17         -1.3300    -0.0860    -0.2100 c5         1 0T9      -0.161700
     22 C19         -2.5590    -0.8770     0.2210 c3         1 0T9      -0.143700
     23 C22         -2.4690    -2.3760    -0.0930 c3         1 0T9      -0.084100
     24 C20         -3.8040    -0.3620    -0.4900 c          1 0T9       0.587100
     25 O3          -3.7920    -0.1170    -1.6770 o          1 0T9      -0.527100
     26 C23         -5.0490    -0.2720     0.3470 c3         1 0T9      -0.174400
     27 C24         -6.3320    -0.0190    -0.4280 c3         1 0T9      -0.062400
     28 C25         -7.5940    -0.0760     0.4360 c3         1 0T9      -0.059700
     29 C27         -7.5830     0.9930     1.5250 c3         1 0T9      -0.087100
     30 C26         -8.8350     0.0380    -0.4530 c3         1 0T9      -0.073400
     31 C28        -10.1560    -0.1720     0.2760 c3         1 0T9      -0.088100
     32 H1           7.0670    -1.7070     0.4910 hc         1 0T9       0.053700
     33 H2           7.2200    -2.0870    -1.2160 hc         1 0T9       0.053700
     34 H3           5.0080    -1.1740    -1.7070 hc         1 0T9       0.042200
     35 H4           4.9030    -2.4150    -0.4780 hc         1 0T9       0.042200
     36 H5           3.0470    -0.1880    -1.2970 hc         1 0T9       0.047700
     37 H6          -0.5500    -1.5490     2.0860 hc         1 0T9       0.036367
     38 H7           1.0020    -0.7640     2.2840 hc         1 0T9       0.036367
     39 H8          -0.4690     0.1830     2.3610 hc         1 0T9       0.036367
     40 H9           0.3320    -2.5670    -0.1020 hc         1 0T9       0.044700
     41 H10          0.6930    -1.4960    -1.4440 hc         1 0T9       0.044700
     42 H11          2.7460    -2.4660    -0.5240 hc         1 0T9       0.042200
     43 H12          2.3440    -1.9450     1.0850 hc         1 0T9       0.042200
     44 H13          4.3450    -1.9080     1.8410 hc         1 0T9       0.035367
     45 H14          5.6570    -0.7720     2.0710 hc         1 0T9       0.035367
     46 H15          4.0080    -0.2600     2.3740 hc         1 0T9       0.035367
     47 H16          7.0440     0.3090    -1.7920 h1         1 0T9       0.030700
     48 H17          9.0610     0.8630    -0.8360 ho         1 0T9       0.402000
     49 H18          7.0050     2.0200    -0.0110 hc         1 0T9       0.050200
     50 H19          6.9950     0.7580     1.2120 hc         1 0T9       0.050200
     51 H20          4.9900     3.0160    -0.1630 ha         1 0T9       0.120000
     52 H21          2.6210     3.0010     0.5010 hc         1 0T9       0.047700
     53 H22          2.6450     2.3770    -1.1250 hc         1 0T9       0.047700
     54 H23          2.3400     0.8350     1.4690 hc         1 0T9       0.056700
     55 H24          0.8610     0.8380    -1.1730 hc         1 0T9       0.049700
     56 H25          0.0600     2.2690     1.3910 hc         1 0T9       0.075200
     57 H26          0.0360     2.8860    -0.2530 hc         1 0T9       0.075200
     58 H27         -1.2690    -0.1100    -1.3090 hc         1 0T9       0.091700
     59 H28         -2.7060    -0.7640     1.3000 hc         1 0T9       0.062700
     60 H29         -2.1960    -2.5430    -1.1350 hc         1 0T9       0.041700
     61 H30         -1.7260    -2.8650     0.5340 hc         1 0T9       0.041700
     62 H31         -3.4210    -2.8760     0.0950 hc         1 0T9       0.041700
     63 H32         -5.1240    -1.1920     0.9400 hc         1 0T9       0.063700
     64 H33         -4.8640     0.5170     1.0830 hc         1 0T9       0.063700
     65 H34         -6.2800     0.9550    -0.9250 hc         1 0T9       0.051700
     66 H35         -6.4190    -0.7640    -1.2250 hc         1 0T9       0.051700
     67 H36         -7.6220    -1.0600     0.9240 hc         1 0T9       0.039700
     68 H37         -6.7180     0.8970     2.1830 hc         1 0T9       0.032367
     69 H38         -7.5550     1.9930     1.0850 hc         1 0T9       0.032367
     70 H39         -8.4680     0.9350     2.1580 hc         1 0T9       0.032367
     71 H40         -8.8350     1.0200    -0.9410 hc         1 0T9       0.039200
     72 H41         -8.7570    -0.6990    -1.2580 hc         1 0T9       0.039200
     73 H42        -10.9950    -0.1530    -0.4210 hc         1 0T9       0.030700
     74 H43        -10.1730    -1.1370     0.7860 hc         1 0T9       0.030700
     75 H44        -10.3400     0.5990     1.0240 hc         1 0T9       0.030700
@<TRIPOS>BOND
     1     1     4 1   
     2     1    11 1   
     3     1    32 1   
     4     1    33 1   
     5     2     3 1   
     6     2    13 1   
     7     2    14 2   
     8     3     4 1   
     9     3     5 1   
    10     3    10 1   
    11     4    34 1   
    12     4    35 1   
    13     5     9 1   
    14     5    16 1   
    15     5    36 1   
    16     6     7 1   
    17     6    37 1   
    18     6    38 1   
    19     6    39 1   
    20     7     8 1   
    21     7    17 1   
    22     7    21 1   
    23     8     9 1   
    24     8    40 1   
    25     8    41 1   
    26     9    42 1   
    27     9    43 1   
    28    10    44 1   
    29    10    45 1   
    30    10    46 1   
    31    11    12 1   
    32    11    13 1   
    33    11    47 1   
    34    12    48 1   
    35    13    49 1   
    36    13    50 1   
    37    14    15 1   
    38    14    51 1   
    39    15    16 1   
    40    15    52 1   
    41    15    53 1   
    42    16    17 1   
    43    16    54 1   
    44    17    18 1   
    45    17    55 1   
    46    18    19 1   
    47    18    56 1   
    48    18    57 1   
    49    19    20 2   
    50    19    21 1   
    51    21    22 1   
    52    21    58 1   
    53    22    23 1   
    54    22    24 1   
    55    22    59 1   
    56    23    60 1   
    57    23    61 1   
    58    23    62 1   
    59    24    25 2   
    60    24    26 1   
    61    26    27 1   
    62    26    63 1   
    63    26    64 1   
    64    27    28 1   
    65    27    65 1   
    66    27    66 1   
    67    28    29 1   
    68    28    30 1   
    69    28    67 1   
    70    29    68 1   
    71    29    69 1   
    72    29    70 1   
    73    30    31 1   
    74    30    71 1   
    75    30    72 1   
    76    31    73 1   
    77    31    74 1   
    78    31    75 1   
@<TRIPOS>SUBSTRUCTURE
     1 0T9         1 TEMP              0 ****  ****    0 ROOT
