@<TRIPOS>MOLECULE
0T9
   75    78     1     0     0
SMALL
No Charge or Current Charge


@<TRIPOS>ATOM
      1 C2           6.5680    -1.9960     0.0780 c6         1 0T9      -0.071400
      2 C4           5.2400     0.6470     0.3330 c2         1 0T9      -0.105400
      3 C5           4.3640    -0.6270     0.4250 c6         1 0T9       0.003200
      4 C6           5.0770    -1.8210    -0.3030 c6         1 0T9      -0.067400
      5 C8           2.9600    -0.3750    -0.2700 c6         1 0T9      -0.046700
      6 C16         -0.3370    -0.2190     1.9360 c3         1 0T9      -0.084100
      7 C14         -0.0430     0.0230    -0.1840 c5         1 0T9      -0.033000
      8 C13          0.5470    -1.2990    -0.7290 c6         1 0T9      -0.060400
      9 C12          1.9440    -1.5670    -0.1010 c6         1 0T9      -0.072400
     10 C7           4.2070    -0.9500     1.9530 c3         1 0T9      -0.080100
     11 C1           7.3550    -0.6960    -0.1880 c6         1 0T9       0.173300
     12 O1           8.7280    -0.8730     0.1740 oh         1 0T9      -0.660000
     13 C3           6.7370     0.4710     0.6120 c6         1 0T9      -0.074200
     14 C11          4.7420     1.8670     0.0590 c2         1 0T9      -0.218200
     15 C10          3.2790     2.1640    -0.2130 c6         1 0T9      -0.038200
     16 C9           2.3320     0.9950     0.1640 c6         1 0T9      -0.041700
     17 C15          0.9520     1.1740    -0.5210 c5         1 0T9      -0.063700
     18 C21          0.1210     2.4670    -0.2410 c5         1 0T9      -0.181400
     19 C18         -1.3310     1.9840    -0.1210 c          1 0T9       0.575100
     20 O2          -2.1260     2.3140     0.7510 o          1 0T9      -0.519100
     21 C17         -1.3290     0.6200    -0.8550 c5         1 0T9      -0.161700
     22 C19         -2.6790    -0.1770    -0.7400 c3         1 0T9      -0.143700
     23 C22         -2.7700    -1.4120    -1.6730 c3         1 0T9      -0.084100
     24 C20         -3.9170     0.7520    -1.0170 c          1 0T9       0.587100
     25 O3          -4.0050     1.3670    -2.0730 o          1 0T9      -0.527100
     26 C23         -5.0440     0.8780     0.0510 c3         1 0T9      -0.174400
     27 C24         -6.2000    -0.1160    -0.2290 c3         1 0T9      -0.062400
     28 C25         -7.2840    -0.1930     0.8830 c3         1 0T9      -0.059700
     29 C27         -8.0100     1.1630     1.0880 c3         1 0T9      -0.087100
     30 C26         -8.2790    -1.3520     0.5860 c3         1 0T9      -0.073400
     31 C28         -9.2880    -1.6520     1.7160 c3         1 0T9      -0.088100
     32 H1           6.6630    -2.2910     1.1310 hc         1 0T9       0.053700
     33 H2           7.0000    -2.8160    -0.5120 hc         1 0T9       0.053700
     34 H3           5.0180    -1.6770    -1.3910 hc         1 0T9       0.042200
     35 H4           4.5540    -2.7640    -0.0950 hc         1 0T9       0.042200
     36 H5           3.1500    -0.2890    -1.3500 hc         1 0T9       0.047700
     37 H6          -1.0760    -1.0020     2.1390 hc         1 0T9       0.036367
     38 H7           0.5940    -0.4990     2.4410 hc         1 0T9       0.036367
     39 H8          -0.6920     0.7080     2.4000 hc         1 0T9       0.036367
     40 H9          -0.1090    -2.1390    -0.4760 hc         1 0T9       0.044700
     41 H10          0.6230    -1.2630    -1.8250 hc         1 0T9       0.044700
     42 H11          2.3510    -2.4770    -0.5590 hc         1 0T9       0.042200
     43 H12          1.8010    -1.8050     0.9580 hc         1 0T9       0.042200
     44 H13          3.6860    -1.8980     2.1230 hc         1 0T9       0.035367
     45 H14          5.1750    -1.0430     2.4560 hc         1 0T9       0.035367
     46 H15          3.6570    -0.1660     2.4840 hc         1 0T9       0.035367
     47 H16          7.2810    -0.4600    -1.2600 h1         1 0T9       0.030700
     48 H17          9.1920    -0.0440    -0.0730 ho         1 0T9       0.441000
     49 H18          7.2780     1.3990     0.3790 hc         1 0T9       0.050200
     50 H19          6.8890     0.3010     1.6860 hc         1 0T9       0.050200
     51 H20          5.4030     2.7340     0.0210 ha         1 0T9       0.170000
     52 H21          2.9830     3.0660     0.3400 hc         1 0T9       0.047700
     53 H22          3.1740     2.4100    -1.2780 hc         1 0T9       0.047700
     54 H23          2.1850     1.0040     1.2510 hc         1 0T9       0.056700
     55 H24          1.1810     1.1440    -1.5950 hc         1 0T9       0.049700
     56 H25          0.4140     3.0210     0.6560 hc         1 0T9       0.075200
     57 H26          0.1970     3.1130    -1.1220 hc         1 0T9       0.075200
     58 H27         -1.1100     0.8020    -1.9150 hc         1 0T9       0.091700
     59 H28         -2.7870    -0.5480     0.2860 hc         1 0T9       0.062700
     60 H29         -2.5570    -1.1340    -2.7120 hc         1 0T9       0.041700
     61 H30         -2.0730    -2.2010    -1.3780 hc         1 0T9       0.041700
     62 H31         -3.7760    -1.8460    -1.6400 hc         1 0T9       0.041700
     63 H32         -4.6280     0.6320     1.0350 hc         1 0T9       0.063700
     64 H33         -5.4280     1.9040     0.0380 hc         1 0T9       0.063700
     65 H34         -6.6750     0.1430    -1.1850 hc         1 0T9       0.051700
     66 H35         -5.7660    -1.1160    -0.3600 hc         1 0T9       0.051700
     67 H36         -6.7720    -0.4370     1.8220 hc         1 0T9       0.039700
     68 H37         -7.3040     1.9560     1.3560 hc         1 0T9       0.032367
     69 H38         -8.5380     1.4650     0.1750 hc         1 0T9       0.032367
     70 H39         -8.7400     1.1030     1.9030 hc         1 0T9       0.032367
     71 H40         -8.8310    -1.1340    -0.3360 hc         1 0T9       0.039200
     72 H41         -7.7080    -2.2690     0.3970 hc         1 0T9       0.039200
     73 H42         -9.8630    -2.5550     1.4790 hc         1 0T9       0.030700
     74 H43         -8.7680    -1.8200     2.6680 hc         1 0T9       0.030700
     75 H44         -9.9990    -0.8290     1.8460 hc         1 0T9       0.030700
@<TRIPOS>BOND
     1     1     4 1   
     2     1    11 1   
     3     1    32 1   
     4     1    33 1   
     5     2     3 1   
     6     2    13 1   
     7     2    14 2   
     8     3     4 1   
     9     3     5 1   
    10     3    10 1   
    11     4    34 1   
    12     4    35 1   
    13     5     9 1   
    14     5    16 1   
    15     5    36 1   
    16     6     7 1   
    17     6    37 1   
    18     6    38 1   
    19     6    39 1   
    20     7     8 1   
    21     7    17 1   
    22     7    21 1   
    23     8     9 1   
    24     8    40 1   
    25     8    41 1   
    26     9    42 1   
    27     9    43 1   
    28    10    44 1   
    29    10    45 1   
    30    10    46 1   
    31    11    12 1   
    32    11    13 1   
    33    11    47 1   
    34    12    48 1   
    35    13    49 1   
    36    13    50 1   
    37    14    15 1   
    38    14    51 1   
    39    15    16 1   
    40    15    52 1   
    41    15    53 1   
    42    16    17 1   
    43    16    54 1   
    44    17    18 1   
    45    17    55 1   
    46    18    19 1   
    47    18    56 1   
    48    18    57 1   
    49    19    20 2   
    50    19    21 1   
    51    21    22 1   
    52    21    58 1   
    53    22    23 1   
    54    22    24 1   
    55    22    59 1   
    56    23    60 1   
    57    23    61 1   
    58    23    62 1   
    59    24    25 2   
    60    24    26 1   
    61    26    27 1   
    62    26    63 1   
    63    26    64 1   
    64    27    28 1   
    65    27    65 1   
    66    27    66 1   
    67    28    29 1   
    68    28    30 1   
    69    28    67 1   
    70    29    68 1   
    71    29    69 1   
    72    29    70 1   
    73    30    31 1   
    74    30    71 1   
    75    30    72 1   
    76    31    73 1   
    77    31    74 1   
    78    31    75 1   
@<TRIPOS>SUBSTRUCTURE
     1 0T9         1 TEMP              0 ****  ****    0 ROOT
