@<TRIPOS>MOLECULE
0TA
   41    44     1     0     0
SMALL
No Charge or Current Charge


@<TRIPOS>ATOM
      1 N1           4.8770    -0.2860     0.1450 nv         1 0TA      -1.064900
      2 N3           0.3650     0.9270    -0.0810 n          1 0TA      -0.357300
      3 C4           0.7830     2.3840    -0.1930 c5         1 0TA       0.096700
      4 C5           0.3710     3.1590     1.0940 c5         1 0TA      -0.080400
      5 C6           0.2660     4.5960     0.5240 c5         1 0TA      -0.077900
      6 C7          -0.5940     4.3450    -0.7450 c5         1 0TA      -0.077900
      7 C8           0.1080     3.1170    -1.4050 c5         1 0TA      -0.080400
      8 C10         -1.3750    -0.8870     0.0070 cc         1 0TA      -0.105400
      9 C13         -2.7580    -1.3630     0.0080 cc         1 0TA      -0.154800
     10 C15         -3.1600    -2.6720     0.0770 cd         1 0TA      -0.170000
     11 C9          -1.0270     0.5780    -0.0640 c          1 0TA       0.571200
     12 N5          -4.5600    -2.6270     0.0460 na         1 0TA      -0.003200
     13 N4          -5.0520    -1.3280    -0.0420 nd         1 0TA      -0.527800
     14 C14         -3.9500    -0.6030    -0.0630 cc         1 0TA       0.278900
     15 C11         -0.3700    -1.8320     0.0800 cd         1 0TA      -0.066200
     16 C12          1.0360    -1.4490     0.0940 ca         1 0TA      -0.292800
     17 C1           2.0860    -2.3930     0.1860 ca         1 0TA       0.222300
     18 C            1.8430    -3.8910     0.2760 c3         1 0TA      -0.158400
     19 C3           1.3810    -0.0920     0.0130 ca         1 0TA       0.313900
     20 N2           2.6770     0.2850     0.0360 nb         1 0TA      -0.318000
     21 C2           3.5860    -0.6860     0.1260 ca         1 0TA       0.434900
     22 N            3.3730    -2.0010     0.2020 nb         1 0TA      -0.275000
     23 H5           5.0670     0.6950     0.3310 hn         1 0TA       0.507000
     24 H4           5.5820    -0.9510     0.4520 hn         1 0TA       0.507000
     25 H6           1.8660     2.5010    -0.3220 h1         1 0TA       0.085700
     26 H8          -0.5820     2.8360     1.5240 hc         1 0TA       0.051450
     27 H7           1.1250     3.0750     1.8850 hc         1 0TA       0.051450
     28 H9          -0.2150     5.2890     1.2240 hc         1 0TA       0.046200
     29 H10          1.2510     5.0110     0.2740 hc         1 0TA       0.046200
     30 H12         -1.6330     4.1170    -0.4790 hc         1 0TA       0.046200
     31 H11         -0.6190     5.2150    -1.4110 hc         1 0TA       0.046200
     32 H13          0.8780     3.4490    -2.1110 hc         1 0TA       0.051450
     33 H14         -0.5840     2.5000    -1.9870 hc         1 0TA       0.051450
     34 H17         -2.6160    -3.6060     0.1450 h4         1 0TA       0.150000
     35 H           -5.1870    -3.4320     0.0810 hn         1 0TA       0.370000
     36 H16         -4.0670     0.4680    -0.1310 h4         1 0TA       0.053100
     37 H15         -0.6190    -2.8850     0.1310 ha         1 0TA       0.184000
     38 H2           1.3040    -4.2540    -0.6070 hc         1 0TA       0.059367
     39 H1           2.7820    -4.4550     0.3420 hc         1 0TA       0.059367
     40 H3           1.2500    -4.1390     1.1640 hc         1 0TA       0.059367
     41 O           -1.8990     1.4350    -0.0970 o          1 0TA      -0.534000
@<TRIPOS>BOND
     1     1    21 1   
     2     1    23 1   
     3     1    24 1   
     4     2     3 1   
     5     2    11 1   
     6     2    19 1   
     7     3     4 1   
     8     3     7 1   
     9     3    25 1   
    10     4     5 1   
    11     4    26 1   
    12     4    27 1   
    13     5     6 1   
    14     5    28 1   
    15     5    29 1   
    16     6     7 1   
    17     6    30 1   
    18     6    31 1   
    19     7    32 1   
    20     7    33 1   
    21     8     9 1   
    22     8    11 1   
    23     8    15 2   
    24     9    10 2   
    25     9    14 1   
    26    10    12 1   
    27    10    34 1   
    28    11    41 2   
    29    12    13 1   
    30    12    35 1   
    31    13    14 2   
    32    14    36 1   
    33    15    16 1   
    34    15    37 1   
    35    16    17 ar  
    36    16    19 ar  
    37    17    18 1   
    38    17    22 ar  
    39    18    38 1   
    40    18    39 1   
    41    18    40 1   
    42    19    20 ar  
    43    20    21 ar  
    44    21    22 ar  
@<TRIPOS>SUBSTRUCTURE
     1 0TA         1 TEMP              0 ****  ****    0 ROOT
