@<TRIPOS>MOLECULE
0TA
   41    44     1     0     0
SMALL
abcg2


@<TRIPOS>ATOM
      1 N1           4.8410    -0.2060     0.1330 nv         1 0TA      -1.064900
      2 N3           0.3690     0.8460    -0.0740 n          1 0TA      -0.357300
      3 C4           0.7260     2.2730    -0.1310 c5         1 0TA       0.096700
      4 C5           0.3860     3.0610     1.1460 c5         1 0TA      -0.080400
      5 C6           0.1350     4.4790     0.6350 c5         1 0TA      -0.077900
      6 C7          -0.6000     4.2570    -0.6860 c5         1 0TA      -0.077900
      7 C8           0.1310     3.0710    -1.3180 c5         1 0TA      -0.080400
      8 C10         -1.3190    -0.9170    -0.0380 cc         1 0TA      -0.105400
      9 C13         -2.7290    -1.2950    -0.0360 cc         1 0TA      -0.154800
     10 C15         -3.2710    -2.4300     0.5400 cd         1 0TA      -0.170000
     11 C9          -0.9800     0.5030    -0.0620 c          1 0TA       0.571200
     12 N5          -4.5810    -2.4130     0.2640 na         1 0TA      -0.003200
     13 N4          -4.9510    -1.3560    -0.4490 nd         1 0TA      -0.527800
     14 C14         -3.8440    -0.6650    -0.6360 cc         1 0TA       0.278900
     15 C11         -0.3300    -1.8400     0.0090 cd         1 0TA      -0.066200
     16 C12          1.0330    -1.4580     0.0500 ca         1 0TA      -0.292800
     17 C1           2.1140    -2.3580     0.1270 ca         1 0TA       0.222300
     18 C            1.8780    -3.8340     0.1730 c3         1 0TA      -0.158400
     19 C3           1.3680    -0.0940     0.0060 ca         1 0TA       0.313900
     20 N2           2.6240     0.3200     0.0380 nb         1 0TA      -0.318000
     21 C2           3.5670    -0.6140     0.1130 ca         1 0TA       0.434900
     22 N            3.3610    -1.9440     0.1600 nb         1 0TA      -0.275000
     23 H5           5.0590     0.7730     0.1850 hn         1 0TA       0.507000
     24 H4           5.5790    -0.8710     0.2860 hn         1 0TA       0.507000
     25 H6           1.8050     2.2740    -0.2400 h1         1 0TA       0.085700
     26 H8          -0.5130     2.6780     1.6280 hc         1 0TA       0.051450
     27 H7           1.1970     3.0030     1.8730 hc         1 0TA       0.051450
     28 H9          -0.4280     5.0870     1.3450 hc         1 0TA       0.046200
     29 H10          1.0850     4.9900     0.4530 hc         1 0TA       0.046200
     30 H12         -1.6410     3.9970    -0.4900 hc         1 0TA       0.046200
     31 H11         -0.5960     5.1400    -1.3280 hc         1 0TA       0.046200
     32 H13          0.9590     3.4300    -1.9320 hc         1 0TA       0.051450
     33 H14         -0.5050     2.4770    -1.9720 hc         1 0TA       0.051450
     34 H17         -2.8240    -3.2160     1.1270 h4         1 0TA       0.150000
     35 H           -5.2680    -3.0910     0.5510 hn         1 0TA       0.370000
     36 H16         -3.8680     0.2530    -1.2000 h4         1 0TA       0.053100
     37 H15         -0.5810    -2.8940     0.0070 ha         1 0TA       0.184000
     38 H2           1.3830    -4.1770    -0.7360 hc         1 0TA       0.059367
     39 H1           2.8210    -4.3650     0.2740 hc         1 0TA       0.059367
     40 H3           1.2340    -4.1060     1.0110 hc         1 0TA       0.059367
     41 O           -1.8330     1.3770    -0.0740 o          1 0TA      -0.534000
@<TRIPOS>BOND
     1     1    21 1   
     2     1    23 1   
     3     1    24 1   
     4     2     3 1   
     5     2    11 1   
     6     2    19 1   
     7     3     4 1   
     8     3     7 1   
     9     3    25 1   
    10     4     5 1   
    11     4    26 1   
    12     4    27 1   
    13     5     6 1   
    14     5    28 1   
    15     5    29 1   
    16     6     7 1   
    17     6    30 1   
    18     6    31 1   
    19     7    32 1   
    20     7    33 1   
    21     8     9 1   
    22     8    11 1   
    23     8    15 2   
    24     9    10 2   
    25     9    14 1   
    26    10    12 1   
    27    10    34 1   
    28    11    41 2   
    29    12    13 1   
    30    12    35 1   
    31    13    14 2   
    32    14    36 1   
    33    15    16 1   
    34    15    37 1   
    35    16    17 ar  
    36    16    19 ar  
    37    17    18 1   
    38    17    22 ar  
    39    18    38 1   
    40    18    39 1   
    41    18    40 1   
    42    19    20 ar  
    43    20    21 ar  
    44    21    22 ar  
@<TRIPOS>SUBSTRUCTURE
     1 0TA         1 TEMP              0 ****  ****    0 ROOT
