@<TRIPOS>MOLECULE
0TB
   46    49     1     0     0
SMALL
bcc


@<TRIPOS>ATOM
      1 N1           3.5990    -2.6820    -0.0850 nb         1 0TB      -0.801000
      2 N3           3.5390    -0.2940     0.0020 nb         1 0TB      -0.794000
      3 C4           2.2220    -0.3440    -0.0250 ca         1 0TB       0.664200
      4 C5           1.5080    -1.5520    -0.0800 ca         1 0TB      -0.442400
      5 C6           2.2870    -2.7260    -0.1120 ca         1 0TB       0.555600
      6 C8           1.6440    -4.0730    -0.1910 c3         1 0TB      -0.160400
      7 C13         -0.5950    -0.3540    -0.1020 cc         1 0TB      -0.167400
      8 C15         -2.0660    -0.3340    -0.1150 ca         1 0TB      -0.163100
      9 C17         -4.1600    -1.1930     0.6430 ca         1 0TB      -0.007400
     10 C20         -2.7980     0.4920    -0.9540 ca         1 0TB       0.466200
     11 C22         -6.8020     0.5420    -1.1500 c3         1 0TB       0.134700
     12 C24          3.1780     4.0030    -0.6250 c5         1 0TB      -0.076900
     13 C26          2.2230     2.7770     1.2790 c5         1 0TB       0.181800
     14 C2           4.1740    -1.4640    -0.0260 ca         1 0TB       0.953900
     15 N7           5.5090    -1.4390     0.0180 nv         1 0TB      -0.948500
     16 N9           1.5200     0.8410    -0.0020 n          1 0TB      -0.283700
     17 N10          2.2640     1.9950     0.0570 nh         1 0TB      -0.522600
     18 C11          0.0930    -1.5210    -0.1180 cd         1 0TB       0.019800
     19 C12          0.1220     0.9140    -0.0310 c          1 0TB       0.707700
     20 O14         -0.4310     1.9980     0.0120 o          1 0TB      -0.611500
     21 C16         -2.7950    -1.2020     0.7100 ca         1 0TB      -0.108000
     22 C18         -4.8100    -0.3190    -0.2350 ca         1 0TB       0.625600
     23 N19         -4.1280     0.4920    -1.0070 nb         1 0TB      -0.744000
     24 O21         -6.1390    -0.3440    -0.2570 os         1 0TB      -0.422100
     25 C23          2.2570     2.8770    -1.0960 c5         1 0TB       0.181800
     26 C25          3.1010     3.9820     0.9190 c5         1 0TB      -0.076900
     27 F27         -4.8910    -2.0020     1.4170 f          1 0TB      -0.124900
     28 H1           0.9380    -4.2260     0.6270 hc         1 0TB       0.061367
     29 H2           1.0850    -4.1790    -1.1220 hc         1 0TB       0.061367
     30 H3           2.3980    -4.8540    -0.1500 hc         1 0TB       0.061367
     31 H4          -2.3020     1.1760    -1.6300 h4         1 0TB       0.036100
     32 H5          -6.5710     1.5850    -0.9310 h1         1 0TB       0.049033
     33 H6          -6.5430     0.3360    -2.1890 h1         1 0TB       0.049033
     34 H7          -7.8640     0.3700    -1.0030 h1         1 0TB       0.049033
     35 H8           4.2000     3.8210    -0.9560 hc         1 0TB       0.048200
     36 H9           2.8680     4.9610    -1.0400 hc         1 0TB       0.048200
     37 H10          1.2140     3.1030     1.5510 h1         1 0TB       0.050950
     38 H11          2.6270     2.1970     2.1110 h1         1 0TB       0.050950
     39 H12          6.0330    -2.2890    -0.0970 hn         1 0TB       0.452800
     40 H13          6.0010    -0.5640    -0.0240 hn         1 0TB       0.452800
     41 H14         -0.4540    -2.4550    -0.1750 ha         1 0TB       0.139000
     42 H15         -2.2940    -1.8660     1.4040 ha         1 0TB       0.153000
     43 H16          1.2620     3.2650    -1.3410 h1         1 0TB       0.050950
     44 H17          2.6430     2.3550    -1.9720 h1         1 0TB       0.050950
     45 H18          4.0970     3.8790     1.3480 hc         1 0TB       0.048200
     46 H19          2.6740     4.9020     1.3170 hc         1 0TB       0.048200
@<TRIPOS>BOND
     1     1     5 ar  
     2     1    14 ar  
     3     2     3 ar  
     4     2    14 ar  
     5     3     4 ar  
     6     3    16 1   
     7     4     5 ar  
     8     4    18 1   
     9     5     6 1   
    10     6    28 1   
    11     6    29 1   
    12     6    30 1   
    13     7     8 1   
    14     7    18 2   
    15     7    19 1   
    16     8    10 ar  
    17     8    21 ar  
    18     9    21 ar  
    19     9    22 ar  
    20     9    27 1   
    21    10    23 ar  
    22    10    31 1   
    23    11    24 1   
    24    11    32 1   
    25    11    33 1   
    26    11    34 1   
    27    12    25 1   
    28    12    26 1   
    29    12    35 1   
    30    12    36 1   
    31    13    17 1   
    32    13    26 1   
    33    13    37 1   
    34    13    38 1   
    35    14    15 1   
    36    15    39 1   
    37    15    40 1   
    38    16    17 1   
    39    16    19 1   
    40    17    25 1   
    41    18    41 1   
    42    19    20 2   
    43    21    42 1   
    44    22    23 ar  
    45    22    24 1   
    46    25    43 1   
    47    25    44 1   
    48    26    45 1   
    49    26    46 1   
@<TRIPOS>SUBSTRUCTURE
     1 0TB         1 TEMP              0 ****  ****    0 ROOT
