@<TRIPOS>MOLECULE
0TB
   46    49     1     0     0
SMALL
No Charge or Current Charge


@<TRIPOS>ATOM
      1 N1           3.5800    -2.9520    -0.1600 nb         1 0TB      -0.275000
      2 N3           3.7090    -0.5600    -0.0200 nb         1 0TB      -0.268000
      3 C4           2.3600    -0.4810    -0.0300 ca         1 0TB       0.335900
      4 C5           1.5680    -1.6400    -0.1050 ca         1 0TB      -0.311800
      5 C6           2.2350    -2.8830    -0.1700 ca         1 0TB       0.227300
      6 C8           1.4950    -4.2080    -0.2540 c3         1 0TB      -0.160400
      7 C13         -0.4820    -0.2710    -0.0410 cc         1 0TB      -0.167400
      8 C15         -1.9510    -0.2690    -0.0620 ca         1 0TB      -0.097800
      9 C17         -4.0910    -1.0230     0.7680 ca         1 0TB       0.093000
     10 C20         -2.6600     0.5530    -0.9700 ca         1 0TB       0.400900
     11 C22         -6.7990     0.6950    -1.1640 c3         1 0TB       0.157900
     12 C24          2.9360     4.2090    -0.5210 c5         1 0TB      -0.076900
     13 C26          2.4930     2.7530     1.3730 c5         1 0TB       0.181800
     14 C2           4.2310    -1.7870    -0.0840 ca         1 0TB       0.427900
     15 N7           5.5830    -1.8620    -0.0760 nv         1 0TB      -1.058900
     16 N9           1.7410     0.8230     0.0350 n          1 0TB      -0.216700
     17 N10          2.6500     1.9960     0.1040 nh         1 0TB      -0.522600
     18 C11          0.1120    -1.5120    -0.1130 cd         1 0TB      -0.030200
     19 C12          0.3160     0.9850     0.0380 c          1 0TB       0.565200
     20 O14         -0.2300     2.0810     0.1040 o          1 0TB      -0.536000
     21 C16         -2.6900    -1.0710     0.8300 ca         1 0TB      -0.090000
     22 C18         -4.7180    -0.1760    -0.1800 ca         1 0TB       0.560300
     23 N19         -4.0130     0.6020    -1.0380 nb         1 0TB      -0.744000
     24 O21         -6.0970    -0.1450    -0.2250 os         1 0TB      -0.445300
     25 C23          2.5610     2.8280    -1.1200 c5         1 0TB       0.181800
     26 C25          2.1800     4.1830     0.8400 c5         1 0TB      -0.076900
     27 F27         -4.8220    -1.7860     1.6170 f          1 0TB      -0.160000
     28 H1           0.8430    -4.3480     0.6170 hc         1 0TB       0.061367
     29 H2           0.8730    -4.2520    -1.1560 hc         1 0TB       0.061367
     30 H3           2.1840    -5.0600    -0.2880 hc         1 0TB       0.061367
     31 H4          -2.1240     1.1850    -1.6770 h4         1 0TB       0.036100
     32 H5          -6.5520     1.7530    -1.0050 h1         1 0TB       0.049033
     33 H6          -6.5430     0.4280    -2.1970 h1         1 0TB       0.049033
     34 H7          -7.8830     0.5790    -1.0430 h1         1 0TB       0.049033
     35 H8           4.0190     4.2950    -0.3730 hc         1 0TB       0.048200
     36 H9           2.6250     5.0400    -1.1640 hc         1 0TB       0.048200
     37 H10          1.6960     2.3690     2.0240 h1         1 0TB       0.050950
     38 H11          3.4320     2.7400     1.9420 h1         1 0TB       0.050950
     39 H12          6.0150    -2.7370    -0.3630 hn         1 0TB       0.508000
     40 H13          6.1140    -1.0140    -0.2560 hn         1 0TB       0.508000
     41 H14         -0.5150    -2.3980    -0.1920 ha         1 0TB       0.189000
     42 H15         -2.1950    -1.7090     1.5590 ha         1 0TB       0.135000
     43 H16          1.5540     2.8380    -1.5580 h1         1 0TB       0.050950
     44 H17          3.2720     2.5080    -1.8930 h1         1 0TB       0.050950
     45 H18          2.5200     4.9650     1.5280 hc         1 0TB       0.048200
     46 H19          1.1040     4.3270     0.6940 hc         1 0TB       0.048200
@<TRIPOS>BOND
     1     1     5 ar  
     2     1    14 ar  
     3     2     3 ar  
     4     2    14 ar  
     5     3     4 ar  
     6     3    16 1   
     7     4     5 ar  
     8     4    18 1   
     9     5     6 1   
    10     6    28 1   
    11     6    29 1   
    12     6    30 1   
    13     7     8 1   
    14     7    18 2   
    15     7    19 1   
    16     8    10 ar  
    17     8    21 ar  
    18     9    21 ar  
    19     9    22 ar  
    20     9    27 1   
    21    10    23 ar  
    22    10    31 1   
    23    11    24 1   
    24    11    32 1   
    25    11    33 1   
    26    11    34 1   
    27    12    25 1   
    28    12    26 1   
    29    12    35 1   
    30    12    36 1   
    31    13    17 1   
    32    13    26 1   
    33    13    37 1   
    34    13    38 1   
    35    14    15 1   
    36    15    39 1   
    37    15    40 1   
    38    16    17 1   
    39    16    19 1   
    40    17    25 1   
    41    18    41 1   
    42    19    20 2   
    43    21    42 1   
    44    22    23 ar  
    45    22    24 1   
    46    25    43 1   
    47    25    44 1   
    48    26    45 1   
    49    26    46 1   
@<TRIPOS>SUBSTRUCTURE
     1 0TB         1 TEMP              0 ****  ****    0 ROOT
