@<TRIPOS>MOLECULE
0TF
   41    40     1     0     0
SMALL
No Charge or Current Charge


@<TRIPOS>ATOM
      1 O18         -2.4280     1.9570     1.3500 o          1 0TF      -0.624100
      2 C11         -2.3750     1.1970     0.3900 c          1 0TF       0.550100
      3 C12         -3.6510     0.7400    -0.4090 c3         1 0TF       0.089500
      4 C14         -4.4840    -0.2640     0.4310 c3         1 0TF      -0.066400
      5 C15         -5.5930    -0.9980    -0.3630 c3         1 0TF      -0.073400
      6 C16         -6.3620    -2.0240     0.4960 c3         1 0TF       0.146800
      7 N17         -7.4030    -2.7160    -0.2850 n8         1 0TF      -0.995200
      8 N13         -4.5170     1.8650    -0.9040 n8         1 0TF      -0.990200
      9 N6          -1.1740     0.7170    -0.0900 ns         1 0TF      -0.494900
     10 C5           0.1300     1.0280     0.4950 c3         1 0TF       0.097000
     11 C4           1.2660     0.2600    -0.2080 c3         1 0TF      -0.095400
     12 C3           2.6570     0.5650     0.3890 c3         1 0TF      -0.076400
     13 C2           3.7990    -0.2080    -0.3160 c3         1 0TF      -0.100400
     14 C1           5.2070     0.0130     0.3010 c3         1 0TF       0.021500
     15 N7           5.6150     1.4580     0.1590 n8         1 0TF      -0.990200
     16 C8           6.2370    -1.0690    -0.2400 c          1 0TF       0.724000
     17 O10          6.7100    -1.8700     0.5560 o          1 0TF      -0.731500
     18 O9           6.5730    -1.0210    -1.4180 o          1 0TF      -0.731500
     19 H1          -3.2870     0.2010    -1.2950 h1         1 0TF       0.061700
     20 H2          -3.8030    -1.0170     0.8470 hc         1 0TF       0.046700
     21 H3          -4.9310     0.2580     1.2870 hc         1 0TF       0.046700
     22 H4          -6.3030    -0.2650    -0.7650 hc         1 0TF       0.054200
     23 H5          -5.1410    -1.5130    -1.2200 hc         1 0TF       0.054200
     24 H6          -5.6630    -2.7740     0.8900 h1         1 0TF       0.025700
     25 H7          -6.8400    -1.5130     1.3440 h1         1 0TF       0.025700
     26 H8          -7.9280    -3.3420     0.3380 hn         1 0TF       0.388000
     27 H9          -8.1070    -2.0300    -0.5850 hn         1 0TF       0.388000
     28 H11         -4.7710     2.4570    -0.1030 hn         1 0TF       0.406000
     29 H12         -3.9540     2.4960    -1.4870 hn         1 0TF       0.406000
     30 H14         -1.2090     0.1070    -0.8980 hn         1 0TF       0.313500
     31 H15          0.3080     2.1080     0.4110 h1         1 0TF       0.049700
     32 H16          0.1130     0.7630     1.5610 h1         1 0TF       0.049700
     33 H17          1.0690    -0.8170    -0.1350 hc         1 0TF       0.040200
     34 H18          1.2670     0.5170    -1.2750 hc         1 0TF       0.040200
     35 H19          2.8410     1.6440     0.3200 hc         1 0TF       0.031700
     36 H20          2.6530     0.3080     1.4560 hc         1 0TF       0.031700
     37 H21          3.5690    -1.2800    -0.2670 hc         1 0TF       0.043200
     38 H22          3.8190     0.0560    -1.3810 hc         1 0TF       0.043200
     39 H23          5.1120    -0.1790     1.3790 h1         1 0TF       0.043700
     40 H24          5.7870     1.6520    -0.8350 hn         1 0TF       0.376000
     41 H25          4.8130     2.0530     0.3910 hn         1 0TF       0.376000
@<TRIPOS>BOND
     1     1     2 2   
     2     2     3 1   
     3     2     9 1   
     4     3     4 1   
     5     3     8 1   
     6     3    19 1   
     7     4     5 1   
     8     4    20 1   
     9     4    21 1   
    10     5     6 1   
    11     5    22 1   
    12     5    23 1   
    13     6     7 1   
    14     6    24 1   
    15     6    25 1   
    16     7    26 1   
    17     7    27 1   
    18     8    28 1   
    19     8    29 1   
    20     9    10 1   
    21     9    30 1   
    22    10    11 1   
    23    10    31 1   
    24    10    32 1   
    25    11    12 1   
    26    11    33 1   
    27    11    34 1   
    28    12    13 1   
    29    12    35 1   
    30    12    36 1   
    31    13    14 1   
    32    13    37 1   
    33    13    38 1   
    34    14    15 1   
    35    14    16 1   
    36    14    39 1   
    37    15    40 1   
    38    15    41 1   
    39    16    17 1   
    40    16    18 1   
@<TRIPOS>SUBSTRUCTURE
     1 0TF         1 TEMP              0 ****  ****    0 ROOT
