@<TRIPOS>MOLECULE
0TF
   41    40     1     0     0
SMALL
abcg2


@<TRIPOS>ATOM
      1 O18         -2.3950     2.1040     1.1180 o          1 0TF      -0.624100
      2 C11         -2.3510     1.2560     0.2340 c          1 0TF       0.550100
      3 C12         -3.6120     0.8110    -0.5120 c3         1 0TF       0.089500
      4 C14         -4.2850    -0.3020     0.2970 c3         1 0TF      -0.066400
      5 C15         -5.5090    -0.8950    -0.3860 c3         1 0TF      -0.073400
      6 C16         -6.1280    -2.0210     0.4270 c3         1 0TF       0.146800
      7 N17         -7.3050    -2.5610    -0.2400 n8         1 0TF      -0.995200
      8 N13         -4.5360     1.8990    -0.7540 n8         1 0TF      -0.990200
      9 N6          -1.2140     0.6430    -0.1200 ns         1 0TF      -0.494900
     10 C5           0.0630     0.9400     0.4980 c3         1 0TF       0.097000
     11 C4           1.1790     0.1170    -0.1260 c3         1 0TF      -0.095400
     12 C3           2.5430     0.5150     0.4230 c3         1 0TF      -0.076400
     13 C2           3.6810    -0.3170    -0.1550 c3         1 0TF      -0.100400
     14 C1           5.0750     0.1060     0.3410 c3         1 0TF       0.021500
     15 N7           5.4740     1.4520    -0.0370 n8         1 0TF      -0.990200
     16 C8           6.1050    -0.9270    -0.1660 c          1 0TF       0.724000
     17 O10          6.1370    -2.0170     0.4400 o          1 0TF      -0.731500
     18 O9           6.7860    -0.6130    -1.1630 o          1 0TF      -0.731500
     19 H1          -3.3200     0.3960    -1.4830 h1         1 0TF       0.061700
     20 H2          -3.5510    -1.0930     0.4790 hc         1 0TF       0.046700
     21 H3          -4.5620     0.0950     1.2800 hc         1 0TF       0.046700
     22 H4          -6.2520    -0.1100    -0.5470 hc         1 0TF       0.054200
     23 H5          -5.2350    -1.2750    -1.3750 hc         1 0TF       0.054200
     24 H6          -5.3980    -2.8290     0.5350 h1         1 0TF       0.025700
     25 H7          -6.3320    -1.6540     1.4440 h1         1 0TF       0.025700
     26 H8          -7.6800    -3.3250     0.3080 hn         1 0TF       0.388000
     27 H9          -8.0320    -1.8560    -0.2520 hn         1 0TF       0.388000
     28 H11         -4.7420     2.3630     0.1240 hn         1 0TF       0.406000
     29 H12         -4.1040     2.5990    -1.3440 hn         1 0TF       0.406000
     30 H14         -1.2350    -0.0250    -0.8730 hn         1 0TF       0.313500
     31 H15          0.2840     2.0060     0.3850 h1         1 0TF       0.049700
     32 H16          0.0130     0.7430     1.5730 h1         1 0TF       0.049700
     33 H17          1.0010    -0.9470     0.0560 hc         1 0TF       0.040200
     34 H18          1.1720     0.2570    -1.2120 hc         1 0TF       0.040200
     35 H19          2.7030     1.5770     0.2090 hc         1 0TF       0.031700
     36 H20          2.5460     0.4190     1.5140 hc         1 0TF       0.031700
     37 H21          3.5180    -1.3670     0.1050 hc         1 0TF       0.043200
     38 H22          3.6590    -0.2600    -1.2500 hc         1 0TF       0.043200
     39 H23          5.0610     0.0510     1.4370 h1         1 0TF       0.043700
     40 H24          5.6840     1.4570    -1.0270 hn         1 0TF       0.376000
     41 H25          4.7150     2.1060     0.1080 hn         1 0TF       0.376000
@<TRIPOS>BOND
     1     1     2 2   
     2     2     3 1   
     3     2     9 1   
     4     3     4 1   
     5     3     8 1   
     6     3    19 1   
     7     4     5 1   
     8     4    20 1   
     9     4    21 1   
    10     5     6 1   
    11     5    22 1   
    12     5    23 1   
    13     6     7 1   
    14     6    24 1   
    15     6    25 1   
    16     7    26 1   
    17     7    27 1   
    18     8    28 1   
    19     8    29 1   
    20     9    10 1   
    21     9    30 1   
    22    10    11 1   
    23    10    31 1   
    24    10    32 1   
    25    11    12 1   
    26    11    33 1   
    27    11    34 1   
    28    12    13 1   
    29    12    35 1   
    30    12    36 1   
    31    13    14 1   
    32    13    37 1   
    33    13    38 1   
    34    14    15 1   
    35    14    16 1   
    36    14    39 1   
    37    15    40 1   
    38    15    41 1   
    39    16    17 1   
    40    16    18 1   
@<TRIPOS>SUBSTRUCTURE
     1 0TF         1 TEMP              0 ****  ****    0 ROOT
