@<TRIPOS>MOLECULE
0TH
   28    27     1     0     0
SMALL
No Charge or Current Charge


@<TRIPOS>ATOM
      1 C15         -2.3120    -0.7670    -0.6400 c          1 0TH       0.726000
      2 O1          -2.5480    -1.6750     0.1490 o          1 0TH      -0.708500
      3 C1          -1.9430     1.6430     0.1460 c3         1 0TH       0.191300
      4 O2          -1.9430     1.7610     1.5670 oh         1 0TH      -0.651000
      5 N4          -0.3480    -0.1780     0.9080 n7         1 0TH      -0.849300
      6 C5          -1.2460     0.3000    -0.2200 c3         1 0TH       0.005500
      7 O4           1.6860    -1.2940     1.8250 o          1 0TH      -0.558500
      8 O3           0.8590    -1.8650    -0.5140 o          1 0TH      -0.558500
      9 C9           2.0620     0.5040    -0.1050 c3         1 0TH      -0.325400
     10 C8           3.5180     0.1310    -0.4710 c3         1 0TH      -0.047400
     11 C7           4.3100     1.3300    -1.0230 c3         1 0TH      -0.082100
     12 H1          -2.9710     1.6450    -0.2470 h1         1 0TH       0.087700
     13 HO2         -1.2130     1.1400     1.8110 ho         1 0TH       0.433000
     14 HN4         -0.8070    -1.0160     1.2840 hn         1 0TH       0.512000
     15 H5          -0.6510     0.4810    -1.1260 h1         1 0TH       0.052700
     16 H91          1.5270     0.8670    -0.9880 h1         1 0TH       0.092200
     17 H92          2.0430     1.2750     0.6730 h1         1 0TH       0.092200
     18 H81          4.0340    -0.2590     0.4160 hc         1 0TH       0.053200
     19 H82          3.5170    -0.6710    -1.2200 hc         1 0TH       0.053200
     20 H71          4.3580     2.1370    -0.2830 hc         1 0TH       0.026367
     21 H72          5.3350     1.0300    -1.2720 hc         1 0TH       0.026367
     22 H73          3.8370     1.7210    -1.9320 hc         1 0TH       0.026367
     23 OXT         -2.8080    -0.6920    -1.7560 o          1 0TH      -0.708500
     24 C3          -1.2080     2.8670    -0.4380 c3         1 0TH      -0.126100
     25 H31A        -0.1710     2.9100    -0.0830 hc         1 0TH       0.025367
     26 H32         -1.1940     2.8200    -1.5330 hc         1 0TH       0.025367
     27 H33         -1.7120     3.7970    -0.1460 hc         1 0TH       0.025367
     28 S1           1.1140    -0.8830     0.5420 s6         1 0TH       1.160100
@<TRIPOS>BOND
     1     1     2 1   
     2     1     6 1   
     3     1    23 1   
     4     3     4 1   
     5     3     6 1   
     6     3    12 1   
     7     3    24 1   
     8     4    13 1   
     9     5     6 1   
    10     5    14 1   
    11     5    28 1   
    12     6    15 1   
    13     7    28 2   
    14     8    28 2   
    15     9    10 1   
    16     9    16 1   
    17     9    17 1   
    18     9    28 1   
    19    10    11 1   
    20    10    18 1   
    21    10    19 1   
    22    11    20 1   
    23    11    21 1   
    24    11    22 1   
    25    24    25 1   
    26    24    26 1   
    27    24    27 1   
@<TRIPOS>SUBSTRUCTURE
     1 0TH         1 TEMP              0 ****  ****    0 ROOT
