@<TRIPOS>MOLECULE
0TH
   28    27     1     0     0
SMALL
abcg2


@<TRIPOS>ATOM
      1 C15         -2.4240    -0.9080    -0.2790 c          1 0TH       0.726000
      2 O1          -2.3880    -1.7380     0.6490 o          1 0TH      -0.708500
      3 C1          -1.9180     1.5670    -0.0990 c3         1 0TH       0.191300
      4 O2          -2.6440     1.6420     1.1110 oh         1 0TH      -0.651000
      5 N4          -0.3280    -0.0990     0.7600 n7         1 0TH      -0.849300
      6 C5          -1.3120     0.1730    -0.2910 c3         1 0TH       0.005500
      7 O4           1.6670    -1.3820     1.5340 o          1 0TH      -0.558500
      8 O3           0.9680    -1.6650    -0.8480 o          1 0TH      -0.558500
      9 C9           2.0990     0.6070    -0.1650 c3         1 0TH      -0.325400
     10 C8           3.4950     0.1790    -0.5990 c3         1 0TH      -0.047400
     11 C7           4.3270     1.3900    -0.9980 c3         1 0TH      -0.082100
     12 H1          -2.6530     1.6970    -0.8960 h1         1 0TH       0.087700
     13 HO2         -2.0160     1.5840     1.8400 ho         1 0TH       0.433000
     14 HN4         -0.7700    -0.7170     1.4450 hn         1 0TH       0.512000
     15 H5          -0.8310     0.1580    -1.2740 h1         1 0TH       0.052700
     16 H91          1.5730     1.1130    -0.9770 h1         1 0TH       0.092200
     17 H92          2.1320     1.2790     0.6940 h1         1 0TH       0.092200
     18 H81          3.9880    -0.3540     0.2160 hc         1 0TH       0.053200
     19 H82          3.4250    -0.5130    -1.4400 hc         1 0TH       0.053200
     20 H71          4.4290     2.0930    -0.1700 hc         1 0TH       0.026367
     21 H72          5.3280     1.0860    -1.3000 hc         1 0TH       0.026367
     22 H73          3.8740     1.9240    -1.8350 hc         1 0TH       0.026367
     23 OXT         -3.2590    -0.8280    -1.1960 o          1 0TH      -0.708500
     24 C3          -0.8850     2.6760    -0.1990 c3         1 0TH      -0.126100
     25 H31A        -0.1430     2.6010     0.5980 hc         1 0TH       0.025367
     26 H32         -0.3570     2.6360    -1.1530 hc         1 0TH       0.025367
     27 H33         -1.3620     3.6540    -0.1260 hc         1 0TH       0.025367
     28 S1           1.1070    -0.7960     0.3200 s6         1 0TH       1.160100
@<TRIPOS>BOND
     1     1     2 1   
     2     1     6 1   
     3     1    23 1   
     4     3     4 1   
     5     3     6 1   
     6     3    12 1   
     7     3    24 1   
     8     4    13 1   
     9     5     6 1   
    10     5    14 1   
    11     5    28 1   
    12     6    15 1   
    13     7    28 2   
    14     8    28 2   
    15     9    10 1   
    16     9    16 1   
    17     9    17 1   
    18     9    28 1   
    19    10    11 1   
    20    10    18 1   
    21    10    19 1   
    22    11    20 1   
    23    11    21 1   
    24    11    22 1   
    25    24    25 1   
    26    24    26 1   
    27    24    27 1   
@<TRIPOS>SUBSTRUCTURE
     1 0TH         1 TEMP              0 ****  ****    0 ROOT
