@<TRIPOS>MOLECULE
0TI
   18    19     1     0     0
SMALL
No Charge or Current Charge


@<TRIPOS>ATOM
      1 C            2.2620    -1.1590    -0.1910 ca         1 0TI      -0.112000
      2 F            3.5780     0.8200     0.0610 f          1 0TI      -0.176000
      3 N           -1.4760    -1.3190    -0.0410 ns         1 0TI      -0.142000
      4 O           -3.6010    -0.3860     0.1520 o          1 0TI      -0.518000
      5 C1           0.9970    -1.7840    -0.2300 ca         1 0TI      -0.122000
      6 O1          -1.7100     1.9960    -0.6530 oh         1 0TI      -0.624000
      7 C2          -0.1300    -0.9740    -0.0470 ca         1 0TI      -0.038000
      8 C3          -0.0470     0.3870     0.1650 ca         1 0TI      -0.121300
      9 C4           1.2040     1.0240     0.2080 ca         1 0TI      -0.075000
     10 C5           2.3610     0.2350     0.0260 ca         1 0TI       0.137000
     11 C6          -1.4430     0.9810     0.3350 c5         1 0TI       0.143600
     12 C7          -2.3780    -0.2910     0.1520 c          1 0TI       0.532000
     13 H            3.1660    -1.7480    -0.3280 ha         1 0TI       0.135000
     14 HN          -1.7820    -2.2700    -0.2020 hn         1 0TI       0.175000
     15 H1           0.9030    -2.8550    -0.3970 ha         1 0TI       0.128000
     16 HO1         -2.6490     2.2670    -0.5420 ho         1 0TI       0.462000
     17 H4           1.2830     2.0950     0.3740 ha         1 0TI       0.145000
     18 H6          -1.5790     1.3640     1.3560 h1         1 0TI       0.070700
@<TRIPOS>BOND
     1     1     5 ar  
     2     1    10 ar  
     3     1    13 1   
     4     2    10 1   
     5     3     7 1   
     6     3    12 1   
     7     3    14 1   
     8     4    12 2   
     9     5     7 ar  
    10     5    15 1   
    11     6    11 1   
    12     6    16 1   
    13     7     8 ar  
    14     8     9 ar  
    15     8    11 1   
    16     9    10 ar  
    17     9    17 1   
    18    11    12 1   
    19    11    18 1   
@<TRIPOS>SUBSTRUCTURE
     1 0TI         1 TEMP              0 ****  ****    0 ROOT
