@<TRIPOS>MOLECULE
0TI
   18    19     1     0     0
SMALL
bcc


@<TRIPOS>ATOM
      1 C            2.2300    -1.1360    -0.1600 ca         1 0TI      -0.130000
      2 F            3.5090     0.8250    -0.0020 f          1 0TI      -0.140900
      3 N           -1.4770    -1.3690    -0.0340 ns         1 0TI      -0.468100
      4 O           -3.5200    -0.3170     0.0100 o          1 0TI      -0.593500
      5 C1           0.9890    -1.7700    -0.1720 ca         1 0TI      -0.140000
      6 O1          -1.7080     1.9800    -0.5840 oh         1 0TI      -0.561800
      7 C2          -0.1380    -0.9860    -0.0280 ca         1 0TI       0.054600
      8 C3          -0.0500     0.3940     0.1360 ca         1 0TI      -0.121300
      9 C4           1.1730     1.0290     0.1460 ca         1 0TI      -0.093000
     10 C5           2.3000     0.2350    -0.0060 ca         1 0TI       0.101900
     11 C6          -1.4320     0.9420     0.3080 c5         1 0TI       0.120400
     12 C7          -2.3110    -0.3030     0.0750 c          1 0TI       0.674500
     13 H            3.1370    -1.7160    -0.2740 ha         1 0TI       0.153000
     14 HN          -1.7960    -2.3110    -0.2060 hn         1 0TI       0.341500
     15 H1           0.9240    -2.8420    -0.2960 ha         1 0TI       0.146000
     16 HO1         -2.5490     2.3780    -0.3370 ho         1 0TI       0.423000
     17 H4           1.2600     2.1020     0.2690 ha         1 0TI       0.163000
     18 H6          -1.5810     1.2470     1.3540 h1         1 0TI       0.070700
@<TRIPOS>BOND
     1     1     5 ar  
     2     1    10 ar  
     3     1    13 1   
     4     2    10 1   
     5     3     7 1   
     6     3    12 1   
     7     3    14 1   
     8     4    12 2   
     9     5     7 ar  
    10     5    15 1   
    11     6    11 1   
    12     6    16 1   
    13     7     8 ar  
    14     8     9 ar  
    15     8    11 1   
    16     9    10 ar  
    17     9    17 1   
    18    11    12 1   
    19    11    18 1   
@<TRIPOS>SUBSTRUCTURE
     1 0TI         1 TEMP              0 ****  ****    0 ROOT
