@<TRIPOS>MOLECULE
0TJ
   39    40     1     0     0
SMALL
No Charge or Current Charge


@<TRIPOS>ATOM
      1 Br1         -3.5690     0.3400     1.0700 br         1 0TJ      -0.020100
      2 CAM         -1.8640     0.3210     0.1790 ca         1 0TJ       0.059100
      3 CAK         -1.1900     1.5190    -0.1400 ca         1 0TJ      -0.010900
      4 Br2         -1.9810     3.2140     0.3220 br         1 0TJ      -0.032100
      5 CAL          0.0640     1.4720    -0.7990 ca         1 0TJ       0.025100
      6 Br3          0.9720     3.1170    -1.2310 br         1 0TJ      -0.032100
      7 CAN          0.6500     0.2270    -1.1410 ca         1 0TJ       0.010100
      8 Br4          2.3490     0.2230    -2.0540 br         1 0TJ      -0.057100
      9 CAP         -0.0520    -0.9570    -0.7990 ca         1 0TJ      -0.040200
     10 CAO         -1.2710    -0.9060    -0.1630 ca         1 0TJ       0.093400
     11 NAI         -1.7940    -2.1680     0.0770 nc         1 0TJ      -0.546100
     12 CAG         -0.8500    -2.9810    -0.4270 cd         1 0TJ       0.438700
     13 N            0.2420    -2.2980    -0.9870 na         1 0TJ      -0.153600
     14 CA           1.4940    -2.8920    -1.5050 c3         1 0TJ      -0.014400
     15 C            2.6910    -2.7810    -0.5460 c          1 0TJ       0.583100
     16 O            2.5700    -2.6110     0.6600 o          1 0TJ      -0.570100
     17 NAA          3.9270    -2.8890    -1.1500 ns         1 0TJ      -0.503900
     18 H1          -0.8800    -4.0640    -0.4140 h5         1 0TJ       0.067800
     19 H2           1.3330    -3.9600    -1.6940 h1         1 0TJ       0.079700
     20 H3           1.7500    -2.4340    -2.4660 h1         1 0TJ       0.079700
     21 H4           3.9380    -3.0400    -2.1520 hn         1 0TJ       0.313500
     22 C1           5.2080    -2.7220    -0.4590 c3         1 0TJ       0.104000
     23 C2           5.5380    -1.2350    -0.2170 c3         1 0TJ      -0.095400
     24 C3           6.8920    -1.0260     0.4950 c3         1 0TJ      -0.073400
     25 C4           7.2210     0.4630     0.7370 c3         1 0TJ      -0.067400
     26 C5           8.5770     0.6720     1.4520 c3         1 0TJ      -0.204400
     27 H5           5.1740    -3.2570     0.5000 h1         1 0TJ       0.057700
     28 H6           5.9980    -3.1780    -1.0720 h1         1 0TJ       0.057700
     29 H7           5.5520    -0.7110    -1.1810 hc         1 0TJ       0.044200
     30 H8           4.7420    -0.7800     0.3840 hc         1 0TJ       0.044200
     31 H9           6.8780    -1.5540     1.4580 hc         1 0TJ       0.047200
     32 H10          7.6900    -1.4800    -0.1070 hc         1 0TJ       0.047200
     33 H11          7.2340     0.9900    -0.2260 hc         1 0TJ       0.043200
     34 H12          6.4220     0.9150     1.3380 hc         1 0TJ       0.043200
     35 H13          8.5530     0.1690     2.4260 hc         1 0TJ       0.069700
     36 H14          9.3600     0.2470     0.8130 hc         1 0TJ       0.069700
     37 C6           8.8820     2.1580     1.6590 c          1 0TJ       0.573900
     38 O1           8.4470     2.8080     2.6040 o          1 0TJ      -0.508100
     39 H15          9.5320     2.6280     0.8880 h4         1 0TJ      -0.020800
@<TRIPOS>BOND
     1     1     2 1   
     2     2     3 ar  
     3     2    10 ar  
     4     3     4 1   
     5     3     5 ar  
     6     5     6 1   
     7     5     7 ar  
     8     7     8 1   
     9     7     9 ar  
    10     9    10 ar  
    11     9    13 1   
    12    10    11 1   
    13    11    12 2   
    14    12    13 1   
    15    12    18 1   
    16    13    14 1   
    17    14    15 1   
    18    14    19 1   
    19    14    20 1   
    20    15    16 2   
    21    15    17 1   
    22    17    21 1   
    23    17    22 1   
    24    22    23 1   
    25    22    27 1   
    26    22    28 1   
    27    23    24 1   
    28    23    29 1   
    29    23    30 1   
    30    24    25 1   
    31    24    31 1   
    32    24    32 1   
    33    25    26 1   
    34    25    33 1   
    35    25    34 1   
    36    26    35 1   
    37    26    36 1   
    38    26    37 1   
    39    37    38 2   
    40    37    39 1   
@<TRIPOS>SUBSTRUCTURE
     1 0TJ         1 TEMP              0 ****  ****    0 ROOT
