@<TRIPOS>MOLECULE
0TJ
   39    40     1     0     0
SMALL
bcc


@<TRIPOS>ATOM
      1 BR1         -4.5320    -1.7850     0.1890 br         1 0TJ      -0.020100
      2 CAM         -2.9260    -0.8880    -0.1230 ca         1 0TJ       0.059100
      3 CAK         -2.7670     0.4740     0.0680 ca         1 0TJ      -0.010900
      4 BR2         -4.2180     1.4960     0.6650 br         1 0TJ      -0.032100
      5 CAL         -1.5210     1.0880    -0.1880 ca         1 0TJ       0.025100
      6 BR3         -1.3320     2.9310     0.0840 br         1 0TJ      -0.032100
      7 CAN         -0.4300     0.3500    -0.6360 ca         1 0TJ       0.010100
      8 BR4          1.2200     1.1690    -0.9630 br         1 0TJ      -0.057100
      9 CAP         -0.6030    -1.0180    -0.8270 ca         1 0TJ      -0.040200
     10 CAO         -1.8400    -1.6340    -0.5700 ca         1 0TJ       0.093400
     11 NAI         -1.7740    -2.9720    -0.8210 nc         1 0TJ      -0.546100
     12 CAG         -0.5530    -3.1660    -1.2160 cd         1 0TJ       0.438700
     13 N            0.2050    -2.0410    -1.2600 na         1 0TJ      -0.124300
     14 CA           1.6060    -2.0490    -1.5950 c3         1 0TJ      -0.043700
     15 C            2.4740    -1.8590    -0.3550 c          1 0TJ       0.650100
     16 O            2.0290    -2.0500     0.7640 o          1 0TJ      -0.570100
     17 NAA          3.7340    -1.5110    -0.6200 ns         1 0TJ      -0.570900
     18 H1          -0.1380    -4.1220    -1.5020 h5         1 0TJ       0.067800
     19 H2           1.8290    -3.0310    -2.0150 h1         1 0TJ       0.079700
     20 H3           1.8260    -1.3240    -2.3770 h1         1 0TJ       0.079700
     21 H4           4.0120    -1.3860    -1.5810 hn         1 0TJ       0.313500
     22 C1           4.7530    -1.3730     0.4020 c3         1 0TJ       0.104000
     23 C2           5.9930    -0.7070    -0.1730 c3         1 0TJ      -0.095400
     24 C3           7.1120    -0.6060     0.8550 c3         1 0TJ      -0.073400
     25 C4           8.3560     0.0680     0.2910 c3         1 0TJ      -0.067400
     26 C5           9.4830     0.1560     1.3210 c3         1 0TJ      -0.204400
     27 H5           4.3590    -0.7770     1.2270 h1         1 0TJ       0.057700
     28 H6           5.0130    -2.3550     0.8090 h1         1 0TJ       0.057700
     29 H7           6.3460    -1.2770    -1.0380 hc         1 0TJ       0.044200
     30 H8           5.7330     0.2920    -0.5360 hc         1 0TJ       0.044200
     31 H9           6.7620    -0.0490     1.7290 hc         1 0TJ       0.047200
     32 H10          7.3730    -1.6080     1.2100 hc         1 0TJ       0.047200
     33 H11          8.7040    -0.4860    -0.5870 hc         1 0TJ       0.043200
     34 H12          8.1000     1.0730    -0.0570 hc         1 0TJ       0.043200
     35 H13          9.1780     0.7260     2.2000 hc         1 0TJ       0.069700
     36 H14          9.7420    -0.8570     1.6520 hc         1 0TJ       0.069700
     37 C6          10.7230     0.7460     0.7270 c          1 0TJ       0.573900
     38 O1          11.3600     1.6560     1.1980 o          1 0TJ      -0.508100
     39 H15         11.0400     0.2680    -0.2180 h4         1 0TJ      -0.020800
@<TRIPOS>BOND
     1     1     2 1   
     2     2     3 ar  
     3     2    10 ar  
     4     3     4 1   
     5     3     5 ar  
     6     5     6 1   
     7     5     7 ar  
     8     7     8 1   
     9     7     9 ar  
    10     9    10 ar  
    11     9    13 1   
    12    10    11 1   
    13    11    12 2   
    14    12    13 1   
    15    12    18 1   
    16    13    14 1   
    17    14    15 1   
    18    14    19 1   
    19    14    20 1   
    20    15    16 2   
    21    15    17 1   
    22    17    21 1   
    23    17    22 1   
    24    22    23 1   
    25    22    27 1   
    26    22    28 1   
    27    23    24 1   
    28    23    29 1   
    29    23    30 1   
    30    24    25 1   
    31    24    31 1   
    32    24    32 1   
    33    25    26 1   
    34    25    33 1   
    35    25    34 1   
    36    26    35 1   
    37    26    36 1   
    38    26    37 1   
    39    37    38 2   
    40    37    39 1   
@<TRIPOS>SUBSTRUCTURE
     1 0TJ         1 TEMP              0 ****  ****    0 ROOT
