@<TRIPOS>MOLECULE
0TM
   47    49     1     0     0
SMALL
abcg2


@<TRIPOS>ATOM
      1 C14         -4.7850    -1.4530    -2.5550 c3         1 0TM       0.142900
      2 O1          -5.0620    -0.2730    -1.8250 os         1 0TM      -0.316100
      3 C5          -4.1030     0.2130    -1.0230 ca         1 0TM       0.116100
      4 C4          -2.8310    -0.3080    -0.8990 ca         1 0TM      -0.145000
      5 C6          -4.4580     1.3480    -0.2630 ca         1 0TM       0.140100
      6 O2          -5.7070     1.7950    -0.4340 os         1 0TM      -0.315100
      7 C17         -6.1240     2.9300     0.3040 c3         1 0TM       0.143900
      8 C1          -3.5290     1.9140     0.5940 ca         1 0TM      -0.181000
      9 C2          -2.2530     1.3700     0.7000 ca         1 0TM       0.165000
     10 CL          -1.1650     2.0910     1.8380 cl         1 0TM      -0.184000
     11 C3          -1.8850     0.2600    -0.0370 cp         1 0TM      -0.154500
     12 C7          -0.5480    -0.3550     0.0510 cp         1 0TM       0.256500
     13 N1           0.5070     0.4000    -0.2040 nb         1 0TM      -0.166000
     14 C9          -0.3710    -1.6980     0.3860 ca         1 0TM      -0.169800
     15 C12         -1.1720    -2.8310     0.7560 cc         1 0TM      -0.021900
     16 C13         -2.5710    -2.9180     0.9100 cg         1 0TM       0.318700
     17 N4          -3.7140    -3.0060     1.0380 n1         1 0TM      -0.456000
     18 C11         -0.3020    -3.8720     0.9720 cd         1 0TM      -0.111100
     19 N3           0.9680    -3.4510     0.7640 na         1 0TM      -0.311400
     20 C10          0.9630    -2.1390     0.4140 ca         1 0TM       0.137500
     21 N2           2.0240    -1.3920     0.1610 nb         1 0TM      -0.220000
     22 C8           1.7260    -0.1410    -0.1350 ca         1 0TM       0.229300
     23 S            2.9900     1.0150    -0.5000 ss         1 0TM      -0.181300
     24 C15          4.4650     0.0010    -0.2450 c3         1 0TM      -0.079400
     25 C16          5.6610     0.8960    -0.5140 c          1 0TM       0.616100
     26 O3           5.4830     2.0580    -0.8580 o          1 0TM      -0.588100
     27 N5           6.8780     0.3470    -0.3670 n          1 0TM      -0.402800
     28 C18          8.0660     1.1600    -0.5410 c3         1 0TM       0.084300
     29 C19          7.1150    -0.9790     0.1640 c3         1 0TM       0.084300
     30 H1          -5.6900    -1.6920    -3.1070 h1         1 0TM       0.043033
     31 H2          -3.9660    -1.3110    -3.2650 h1         1 0TM       0.043033
     32 H3          -4.5410    -2.2890    -1.8940 h1         1 0TM       0.043033
     33 H4          -2.5360    -1.1700    -1.4830 ha         1 0TM       0.128000
     34 H5          -6.0750     2.7530     1.3810 h1         1 0TM       0.044033
     35 H6          -5.5260     3.8120     0.0600 h1         1 0TM       0.044033
     36 H7          -7.1570     3.1150     0.0230 h1         1 0TM       0.044033
     37 H8          -3.7830     2.7770     1.1930 ha         1 0TM       0.136000
     38 H9          -0.5160    -4.8860     1.2640 h4         1 0TM       0.230000
     39 H10          1.7920    -4.0240     0.8690 hn         1 0TM       0.368000
     40 H11          4.4760    -0.3840     0.7760 h1         1 0TM       0.091200
     41 H12          4.4510    -0.8580    -0.9180 h1         1 0TM       0.091200
     42 H13          8.4760     1.4680     0.4240 h1         1 0TM       0.043367
     43 H14          8.8250     0.5810    -1.0650 h1         1 0TM       0.043367
     44 H15          7.8420     2.0470    -1.1230 h1         1 0TM       0.043367
     45 H16          6.2450    -1.6200     0.0680 h1         1 0TM       0.043367
     46 H17          7.9290    -1.4470    -0.3890 h1         1 0TM       0.043367
     47 H18          7.3990    -0.9380     1.2180 h1         1 0TM       0.043367
@<TRIPOS>BOND
     1     1     2 1   
     2     1    30 1   
     3     1    31 1   
     4     1    32 1   
     5     2     3 1   
     6     3     4 ar  
     7     3     5 ar  
     8     4    11 ar  
     9     4    33 1   
    10     5     6 1   
    11     5     8 ar  
    12     6     7 1   
    13     7    34 1   
    14     7    35 1   
    15     7    36 1   
    16     8     9 ar  
    17     8    37 1   
    18     9    10 1   
    19     9    11 ar  
    20    11    12 1   
    21    12    13 ar  
    22    12    14 ar  
    23    13    22 ar  
    24    14    15 1   
    25    14    20 ar  
    26    15    16 1   
    27    15    18 2   
    28    16    17 3   
    29    18    19 1   
    30    18    38 1   
    31    19    20 1   
    32    19    39 1   
    33    20    21 ar  
    34    21    22 ar  
    35    22    23 1   
    36    23    24 1   
    37    24    25 1   
    38    24    40 1   
    39    24    41 1   
    40    25    26 2   
    41    25    27 1   
    42    27    28 1   
    43    27    29 1   
    44    28    42 1   
    45    28    43 1   
    46    28    44 1   
    47    29    45 1   
    48    29    46 1   
    49    29    47 1   
@<TRIPOS>SUBSTRUCTURE
     1 0TM         1 TEMP              0 ****  ****    0 ROOT
