@<TRIPOS>MOLECULE
0TM
   47    49     1     0     0
SMALL
No Charge or Current Charge


@<TRIPOS>ATOM
      1 C14         -4.6550    -1.2900    -2.9960 c3         1 0TM       0.142900
      2 O1          -5.0230    -0.2360    -2.0900 os         1 0TM      -0.316100
      3 C5          -4.1600     0.2460    -1.1180 ca         1 0TM       0.116100
      4 C4          -2.8440    -0.2510    -0.9770 ca         1 0TM      -0.145000
      5 C6          -4.6180     1.2610    -0.2460 ca         1 0TM       0.140100
      6 O2          -5.9110     1.7340    -0.4020 os         1 0TM      -0.315100
      7 C17         -6.4660     2.7630     0.4370 c3         1 0TM       0.143900
      8 C1          -3.7590     1.7640     0.7560 ca         1 0TM      -0.181000
      9 C2          -2.4550     1.2620     0.8890 ca         1 0TM       0.165000
     10 Cl          -1.4480     1.9100     2.1820 cl         1 0TM      -0.184000
     11 C3          -1.9780     0.2470     0.0260 cp         1 0TM      -0.154500
     12 C7          -0.5970    -0.2970     0.1540 cp         1 0TM       0.256500
     13 N1           0.4240     0.5210    -0.1740 nb         1 0TM      -0.166000
     14 C9          -0.3140    -1.6220     0.5600 ca         1 0TM      -0.169800
     15 C12         -1.1510    -2.7160     0.9860 cc         1 0TM      -0.021900
     16 C13         -2.5680    -2.7470     1.1430 cg         1 0TM       0.318700
     17 N4          -3.7250    -2.7980     1.2870 n1         1 0TM      -0.456000
     18 C11         -0.2980    -3.7740     1.2650 cd         1 0TM      -0.111100
     19 N3           1.0360    -3.3670     1.0290 na         1 0TM      -0.311400
     20 C10          0.9930    -2.0500     0.6090 ca         1 0TM       0.137500
     21 N2           2.0100    -1.2320     0.2800 nb         1 0TM      -0.220000
     22 C8           1.6800     0.0260    -0.0980 ca         1 0TM       0.229300
     23 S            3.0020     1.1490    -0.5420 ss         1 0TM      -0.181300
     24 C15          4.5570     0.1580    -0.2890 c3         1 0TM      -0.079400
     25 C16          5.8530     0.9290    -0.6090 c          1 0TM       0.616100
     26 O3           5.8320     2.0890    -1.0060 o          1 0TM      -0.588100
     27 N5           7.0850     0.2580    -0.4280 n          1 0TM      -0.402800
     28 C18          8.3620     0.9510    -0.7160 c3         1 0TM       0.084300
     29 C19          7.1460    -1.1490     0.0340 c3         1 0TM       0.084300
     30 H1          -5.4900    -1.5180    -3.6710 h1         1 0TM       0.043033
     31 H2          -3.7940    -0.9960    -3.6090 h1         1 0TM       0.043033
     32 H3          -4.4030    -2.2060    -2.4470 h1         1 0TM       0.043033
     33 H4          -2.4690    -1.0280    -1.6370 ha         1 0TM       0.128000
     34 H5          -6.4780     2.4450     1.4880 h1         1 0TM       0.044033
     35 H6          -5.8840     3.6900     0.3540 h1         1 0TM       0.044033
     36 H7          -7.4980     2.9820     0.1370 h1         1 0TM       0.044033
     37 H8          -4.0840     2.5380     1.4420 ha         1 0TM       0.136000
     38 H9          -0.5440    -4.7720     1.6200 h4         1 0TM       0.230000
     39 H10          1.8740    -3.9280     1.1490 hn         1 0TM       0.368000
     40 H11          4.6070    -0.1670     0.7570 h1         1 0TM       0.091200
     41 H12          4.5250    -0.7290    -0.9320 h1         1 0TM       0.091200
     42 H13          8.4310     1.8650    -0.1120 h1         1 0TM       0.043367
     43 H14          9.2200     0.3090    -0.4790 h1         1 0TM       0.043367
     44 H15          8.4050     1.2190    -1.7790 h1         1 0TM       0.043367
     45 H16          6.6040    -1.7970    -0.6670 h1         1 0TM       0.043367
     46 H17          8.1850    -1.4960     0.0930 h1         1 0TM       0.043367
     47 H18          6.6940    -1.2340     1.0310 h1         1 0TM       0.043367
@<TRIPOS>BOND
     1     1     2 1   
     2     1    30 1   
     3     1    31 1   
     4     1    32 1   
     5     2     3 1   
     6     3     4 ar  
     7     3     5 ar  
     8     4    11 ar  
     9     4    33 1   
    10     5     6 1   
    11     5     8 ar  
    12     6     7 1   
    13     7    34 1   
    14     7    35 1   
    15     7    36 1   
    16     8     9 ar  
    17     8    37 1   
    18     9    10 1   
    19     9    11 ar  
    20    11    12 1   
    21    12    13 ar  
    22    12    14 ar  
    23    13    22 ar  
    24    14    15 1   
    25    14    20 ar  
    26    15    16 1   
    27    15    18 2   
    28    16    17 3   
    29    18    19 1   
    30    18    38 1   
    31    19    20 1   
    32    19    39 1   
    33    20    21 ar  
    34    21    22 ar  
    35    22    23 1   
    36    23    24 1   
    37    24    25 1   
    38    24    40 1   
    39    24    41 1   
    40    25    26 2   
    41    25    27 1   
    42    27    28 1   
    43    27    29 1   
    44    28    42 1   
    45    28    43 1   
    46    28    44 1   
    47    29    45 1   
    48    29    46 1   
    49    29    47 1   
@<TRIPOS>SUBSTRUCTURE
     1 0TM         1 TEMP              0 ****  ****    0 ROOT
