@<TRIPOS>MOLECULE
0TO
   36    38     1     0     0
SMALL
No Charge or Current Charge


@<TRIPOS>ATOM
      1 C21          5.1800     1.4150     0.4460 ca         1 0TO      -0.133000
      2 C20          4.6060     0.2690     1.0160 ca         1 0TO       0.147000
      3 Cl           5.6030    -0.8330     1.9580 cl         1 0TO      -0.203000
      4 C18          3.2390     0.0020     0.8470 ca         1 0TO      -0.124000
      5 C19          4.3810     2.3020    -0.2930 ca         1 0TO      -0.073000
      6 C17          3.0110     2.0320    -0.4610 ca         1 0TO      -0.176000
      7 C7           2.4350     0.8770     0.0940 ca         1 0TO       0.319000
      8 N6           1.0660     0.6650    -0.0910 nu         1 0TO      -0.931900
      9 C4           0.2420    -0.4630    -0.0940 ca         1 0TO       0.404900
     10 N5           0.8540    -1.6570    -0.1860 nb         1 0TO      -0.271000
     11 C8           0.0600    -2.7420    -0.2280 ca         1 0TO       0.163900
     12 N9          -1.2860    -2.7520    -0.1990 nb         1 0TO      -0.201000
     13 C2          -1.1720    -0.3570    -0.0620 ca         1 0TO      -0.166000
     14 C1          -1.9150    -1.5620    -0.1170 ca         1 0TO       0.066000
     15 C3          -1.8480     0.8840     0.0290 ca         1 0TO      -0.162000
     16 C10         -3.2610     0.9270     0.0600 ca         1 0TO       0.119100
     17 O11         -3.9550     2.1240     0.1500 os         1 0TO      -0.315100
     18 C14         -3.2960     3.4010     0.2170 c3         1 0TO       0.143900
     19 C12         -3.9990    -0.2780     0.0010 ca         1 0TO       0.157100
     20 C15         -3.3190    -1.5120    -0.0860 ca         1 0TO      -0.186000
     21 O13         -5.3830    -0.2080     0.0320 os         1 0TO      -0.315100
     22 C16         -6.2190    -1.3770    -0.0230 c3         1 0TO       0.141900
     23 H1           6.2400     1.6170     0.5810 ha         1 0TO       0.132000
     24 H2           2.8110    -0.8760     1.3170 ha         1 0TO       0.170000
     25 H3           4.8200     3.1950    -0.7330 ha         1 0TO       0.117000
     26 H4           2.3990     2.7240    -1.0350 ha         1 0TO       0.110000
     27 H5           0.5650     1.5070    -0.3640 hn         1 0TO       0.496000
     28 H6           0.5550    -3.7080    -0.2980 h5         1 0TO       0.048100
     29 H7          -1.2780     1.8050     0.0850 ha         1 0TO       0.112000
     30 H8          -4.0370     4.2070     0.2820 h1         1 0TO       0.042700
     31 H9          -2.6510     3.4610     1.1030 h1         1 0TO       0.042700
     32 H10         -2.6850     3.5730    -0.6780 h1         1 0TO       0.042700
     33 H11         -3.8660    -2.4480    -0.1310 ha         1 0TO       0.144000
     34 H12         -7.2770    -1.0880     0.0150 h1         1 0TO       0.046367
     35 H13         -6.0530    -1.9330    -0.9540 h1         1 0TO       0.046367
     36 H14         -6.0190    -2.0410     0.8280 h1         1 0TO       0.046367
@<TRIPOS>BOND
     1     1     2 ar  
     2     1     5 ar  
     3     1    23 1   
     4     2     3 1   
     5     2     4 ar  
     6     4     7 ar  
     7     4    24 1   
     8     5     6 ar  
     9     5    25 1   
    10     6     7 ar  
    11     6    26 1   
    12     7     8 1   
    13     8     9 1   
    14     8    27 1   
    15     9    10 ar  
    16     9    13 ar  
    17    10    11 ar  
    18    11    12 ar  
    19    11    28 1   
    20    12    14 ar  
    21    13    14 ar  
    22    13    15 ar  
    23    14    20 ar  
    24    15    16 ar  
    25    15    29 1   
    26    16    17 1   
    27    16    19 ar  
    28    17    18 1   
    29    18    30 1   
    30    18    31 1   
    31    18    32 1   
    32    19    20 ar  
    33    19    21 1   
    34    20    33 1   
    35    21    22 1   
    36    22    34 1   
    37    22    35 1   
    38    22    36 1   
@<TRIPOS>SUBSTRUCTURE
     1 0TO         1 TEMP              0 ****  ****    0 ROOT
