@<TRIPOS>MOLECULE
0TO
   36    38     1     0     0
SMALL
bcc


@<TRIPOS>ATOM
      1 C21          5.1590     1.3970     0.3380 ca         1 0TO      -0.151000
      2 C20          4.6790     0.1020     0.4160 ca         1 0TO       0.055400
      3 CL           5.8060    -1.2040     0.6110 cl         1 0TO      -0.111400
      4 C18          3.3300    -0.2080     0.3440 ca         1 0TO      -0.142000
      5 C19          4.2310     2.4190     0.1820 ca         1 0TO      -0.091000
      6 C17          2.8790     2.1480     0.1070 ca         1 0TO      -0.194000
      7 C7           2.4100     0.8310     0.1880 ca         1 0TO       0.180600
      8 N6           1.0300     0.6670     0.1080 nu         1 0TO      -0.738300
      9 C4           0.2550    -0.4460     0.1380 ca         1 0TO       0.733200
     10 N5           0.8170    -1.6330     0.2260 nb         1 0TO      -0.797000
     11 C8           0.0140    -2.7050     0.2380 ca         1 0TO       0.689900
     12 N9          -1.2850    -2.7230     0.1690 nb         1 0TO      -0.727000
     13 C2          -1.1700    -0.3090     0.0720 ca         1 0TO      -0.296600
     14 C1          -1.8950    -1.5120     0.0860 ca         1 0TO       0.459600
     15 C3          -1.8640     0.9210    -0.0010 ca         1 0TO      -0.180000
     16 C10         -3.2310     0.9500    -0.0670 ca         1 0TO       0.119100
     17 O11         -3.9830     2.0540    -0.1420 os         1 0TO      -0.291900
     18 C14         -3.3290     3.3090    -0.1540 c3         1 0TO       0.120700
     19 C12         -3.9690    -0.2770    -0.0580 ca         1 0TO       0.157100
     20 C15         -3.3040    -1.4730     0.0170 ca         1 0TO      -0.269300
     21 O13         -5.2930    -0.1320    -0.1240 os         1 0TO      -0.291900
     22 C16         -6.0980    -1.2970    -0.1090 c3         1 0TO       0.118700
     23 H1           6.2180     1.6070     0.3960 ha         1 0TO       0.150000
     24 H2           2.9990    -1.2310     0.4060 ha         1 0TO       0.188000
     25 H3           4.5710     3.4450     0.1180 ha         1 0TO       0.135000
     26 H4           2.1770     2.9640    -0.0130 ha         1 0TO       0.128000
     27 H5           0.5390     1.5380    -0.0100 hn         1 0TO       0.440800
     28 H6           0.5190    -3.6630     0.3120 h5         1 0TO       0.048100
     29 H7          -1.3240     1.8580     0.0020 ha         1 0TO       0.130000
     30 H8          -4.1090     4.0610    -0.2350 h1         1 0TO       0.042700
     31 H9          -2.7650     3.4790     0.7660 h1         1 0TO       0.042700
     32 H10         -2.6540     3.4050    -1.0080 h1         1 0TO       0.042700
     33 H11         -3.8340    -2.4160     0.0290 ha         1 0TO       0.162000
     34 H12         -7.1280    -0.9580    -0.1660 h1         1 0TO       0.046367
     35 H13         -5.8880    -1.9440    -0.9640 h1         1 0TO       0.046367
     36 H14         -5.9620    -1.8710     0.8110 h1         1 0TO       0.046367
@<TRIPOS>BOND
     1     1     2 ar  
     2     1     5 ar  
     3     1    23 1   
     4     2     3 1   
     5     2     4 ar  
     6     4     7 ar  
     7     4    24 1   
     8     5     6 ar  
     9     5    25 1   
    10     6     7 ar  
    11     6    26 1   
    12     7     8 1   
    13     8     9 1   
    14     8    27 1   
    15     9    10 ar  
    16     9    13 ar  
    17    10    11 ar  
    18    11    12 ar  
    19    11    28 1   
    20    12    14 ar  
    21    13    14 ar  
    22    13    15 ar  
    23    14    20 ar  
    24    15    16 ar  
    25    15    29 1   
    26    16    17 1   
    27    16    19 ar  
    28    17    18 1   
    29    18    30 1   
    30    18    31 1   
    31    18    32 1   
    32    19    20 ar  
    33    19    21 1   
    34    20    33 1   
    35    21    22 1   
    36    22    34 1   
    37    22    35 1   
    38    22    36 1   
@<TRIPOS>SUBSTRUCTURE
     1 0TO         1 TEMP              0 ****  ****    0 ROOT
