@<TRIPOS>MOLECULE
0TP
   46    49     1     0     0
SMALL
abcg2


@<TRIPOS>ATOM
      1 C1          -7.3730     0.6300    -0.2640 c6         1 0TP       0.146100
      2 N1           4.9430     2.2030     0.3910 nb         1 0TP      -0.781000
      3 O1          -7.8710    -0.5850     0.2430 os         1 0TP      -0.442000
      4 S1           1.6450    -0.7690    -0.1230 ss         1 0TP       0.205400
      5 C2          -1.4680    -0.8470     0.3820 ca         1 0TP      -0.062500
      6 O2           3.8350    -2.3710    -0.2700 o          1 0TP      -0.622100
      7 C3          -7.0570    -1.6510    -0.1840 c6         1 0TP       0.146100
      8 N3           6.0250    -1.8710    -0.2350 ns         1 0TP      -0.499900
      9 C4          -5.6210    -1.4970     0.2810 c6         1 0TP       0.163800
     10 N4          -5.0810    -0.2190    -0.1450 nh         1 0TP      -0.788400
     11 C5          -3.1260     1.1930    -0.4470 ca         1 0TP      -0.170000
     12 C6          -5.9550     0.8950     0.2020 c6         1 0TP       0.163800
     13 C7           1.2170     1.7540     0.2280 cc         1 0TP      -0.165200
     14 C8           2.6350     1.5830     0.2260 ca         1 0TP      -0.198800
     15 C9           3.0200     0.2550     0.0520 ca         1 0TP      -0.084000
     16 C10          3.6590     2.5500     0.3950 ca         1 0TP       0.678900
     17 C11          4.3770    -0.1140     0.0330 ca         1 0TP      -0.247600
     18 C12          4.7310    -1.5340    -0.1690 c          1 0TP       0.626700
     19 C13          5.2710     0.9260     0.2180 ca         1 0TP       0.431900
     20 C14          0.5500     0.5830     0.0540 cd         1 0TP      -0.026600
     21 C15          6.4510    -3.2350    -0.4410 c3         1 0TP       0.097300
     22 C16         -0.8910     0.3650     0.0060 ca         1 0TP      -0.065800
     23 C17         -2.8380    -1.0420     0.3540 ca         1 0TP      -0.170000
     24 C18         -3.7110    -0.0280    -0.0680 ca         1 0TP       0.311000
     25 C19         -1.7590     1.3780    -0.4110 ca         1 0TP      -0.062500
     26 H1          -7.4030     0.6280    -1.3620 h1         1 0TP       0.053700
     27 H1A         -8.0240     1.4300     0.0900 h1         1 0TP       0.053700
     28 H2          -0.8480    -1.6610     0.7400 ha         1 0TP       0.113500
     29 HN2          4.1190     4.5140     0.5790 hn         1 0TP       0.491000
     30 HN2A         2.4470     4.2060     0.4130 hn         1 0TP       0.491000
     31 H3          -7.4710    -2.5720     0.2280 h1         1 0TP       0.053700
     32 H3A         -7.0770    -1.7330    -1.2800 h1         1 0TP       0.053700
     33 HN3          6.7380    -1.1640    -0.1950 hn         1 0TP       0.315500
     34 H4          -5.5620    -1.6170     1.3720 h1         1 0TP       0.048450
     35 H4A         -5.0490    -2.3100    -0.1680 h1         1 0TP       0.048450
     36 H5          -3.7360     2.0110    -0.8040 ha         1 0TP       0.113000
     37 H6          -5.6180     1.8120    -0.2770 h1         1 0TP       0.048450
     38 H6A         -5.9430     1.0700     1.2870 h1         1 0TP       0.048450
     39 H7           0.7170     2.7000     0.3830 ha         1 0TP       0.194000
     40 H13          6.3400     0.7390     0.2320 h4         1 0TP       0.006100
     41 H15          6.0340    -3.9010     0.3150 h1         1 0TP       0.040367
     42 H15A         6.1620    -3.6100    -1.4240 h1         1 0TP       0.040367
     43 H15B         7.5340    -3.2700    -0.3670 h1         1 0TP       0.040367
     44 H17         -3.2140    -1.9980     0.6900 ha         1 0TP       0.113000
     45 H19         -1.3600     2.3280    -0.7420 ha         1 0TP       0.113500
     46 N2           3.3670     3.8470     0.5980 nv         1 0TP      -1.065900
@<TRIPOS>BOND
     1     1     3 1   
     2     1    12 1   
     3     1    26 1   
     4     1    27 1   
     5     2    16 ar  
     6     2    19 ar  
     7     3     7 1   
     8     4    15 1   
     9     4    20 1   
    10     5    22 ar  
    11     5    23 ar  
    12     5    28 1   
    13     6    18 2   
    14     7     9 1   
    15     7    31 1   
    16     7    32 1   
    17     8    18 1   
    18     8    21 1   
    19     8    33 1   
    20     9    10 1   
    21     9    34 1   
    22     9    35 1   
    23    10    12 1   
    24    10    24 1   
    25    11    24 ar  
    26    11    25 ar  
    27    11    36 1   
    28    12    37 1   
    29    12    38 1   
    30    13    14 1   
    31    13    20 2   
    32    13    39 1   
    33    14    15 ar  
    34    14    16 ar  
    35    15    17 ar  
    36    16    46 1   
    37    17    18 1   
    38    17    19 ar  
    39    19    40 1   
    40    20    22 1   
    41    21    41 1   
    42    21    42 1   
    43    21    43 1   
    44    22    25 ar  
    45    23    24 ar  
    46    23    44 1   
    47    25    45 1   
    48    29    46 1   
    49    30    46 1   
@<TRIPOS>SUBSTRUCTURE
     1 0TP         1 TEMP              0 ****  ****    0 ROOT
