@<TRIPOS>MOLECULE
0TP
   46    49     1     0     0
SMALL
No Charge or Current Charge


@<TRIPOS>ATOM
      1 C1          -7.5130     0.7270     0.5460 c6         1 0TP       0.146100
      2 N1           4.9440     2.2020    -0.1830 nb         1 0TP      -0.781000
      3 O1          -8.0670    -0.5740     0.2390 os         1 0TP      -0.442000
      4 S1           1.6210    -0.9520     0.1010 ss         1 0TP       0.205400
      5 C2          -1.5380    -0.9920     0.1020 ca         1 0TP      -0.062500
      6 O2           4.1760    -2.5580     0.2750 o          1 0TP      -0.622100
      7 C3          -7.3450    -1.2470    -0.8190 c6         1 0TP       0.146100
      8 N3           6.2850    -1.7600     0.2150 ns         1 0TP      -0.499900
      9 C4          -5.8520    -1.4580    -0.4240 c6         1 0TP       0.163800
     10 N4          -5.1980    -0.1860     0.0310 nh         1 0TP      -0.788400
     11 C5          -3.2160     1.2370    -0.1050 ca         1 0TP      -0.170000
     12 C6          -6.0280     0.6040     1.0010 c6         1 0TP       0.163800
     13 C7           1.2090     1.6620    -0.1460 cc         1 0TP      -0.165200
     14 C8           2.6480     1.4700    -0.1240 ca         1 0TP      -0.198800
     15 C9           3.0230     0.1480     0.0060 ca         1 0TP      -0.084000
     16 C10          3.6450     2.4520    -0.2110 ca         1 0TP       0.678900
     17 C11          4.4040    -0.1760     0.0470 ca         1 0TP      -0.247600
     18 C12          4.9170    -1.5910     0.1880 c          1 0TP       0.626700
     19 C13          5.3130     0.9040    -0.0520 ca         1 0TP       0.431900
     20 C14          0.5190     0.4600    -0.0350 cd         1 0TP      -0.026600
     21 C15          6.9520    -3.0580     0.3450 c3         1 0TP       0.097300
     22 C16         -0.9560     0.2910    -0.0180 ca         1 0TP      -0.065800
     23 C17         -2.9350    -1.1520     0.1180 ca         1 0TP      -0.170000
     24 C18         -3.7900    -0.0400     0.0180 ca         1 0TP       0.311000
     25 C19         -1.8200     1.4040    -0.1220 ca         1 0TP      -0.062500
     26 H1          -7.5780     1.3670    -0.3460 h1         1 0TP       0.053700
     27 H1A         -8.1100     1.1940     1.3430 h1         1 0TP       0.053700
     28 H2          -0.9210    -1.8820     0.1870 ha         1 0TP       0.113500
     29 HN2          4.2470     4.2700    -0.6450 hn         1 0TP       0.491000
     30 HN2A         2.5600     4.0200    -0.8160 hn         1 0TP       0.491000
     31 H3          -7.8180    -2.2180    -1.0190 h1         1 0TP       0.053700
     32 H3A         -7.4060    -0.6440    -1.7370 h1         1 0TP       0.053700
     33 HN3          6.8610    -0.9320     0.1400 hn         1 0TP       0.315500
     34 H4          -5.8030    -2.2120     0.3750 h1         1 0TP       0.048450
     35 H4A         -5.3210    -1.8670    -1.2960 h1         1 0TP       0.048450
     36 H5          -3.8540     2.1090    -0.2010 ha         1 0TP       0.113000
     37 H6          -5.6240     1.6190     1.1290 h1         1 0TP       0.048450
     38 H6A         -6.0010     0.1220     1.9890 h1         1 0TP       0.048450
     39 H7           0.7280     2.6310    -0.2280 ha         1 0TP       0.194000
     40 H13          6.3890     0.7430    -0.0310 h4         1 0TP       0.006100
     41 H15          6.6550    -3.5330     1.2890 h1         1 0TP       0.040367
     42 H15A         6.6690    -3.7060    -0.4950 h1         1 0TP       0.040367
     43 H15B         8.0400    -2.9140     0.3400 h1         1 0TP       0.040367
     44 H17         -3.3450    -2.1510     0.2220 ha         1 0TP       0.113000
     45 H19         -1.4270     2.4100    -0.2220 ha         1 0TP       0.113500
     46 N2           3.4230     3.7570    -0.3590 nv         1 0TP      -1.065900
@<TRIPOS>BOND
     1     1     3 1   
     2     1    12 1   
     3     1    26 1   
     4     1    27 1   
     5     2    16 ar  
     6     2    19 ar  
     7     3     7 1   
     8     4    15 1   
     9     4    20 1   
    10     5    22 ar  
    11     5    23 ar  
    12     5    28 1   
    13     6    18 2   
    14     7     9 1   
    15     7    31 1   
    16     7    32 1   
    17     8    18 1   
    18     8    21 1   
    19     8    33 1   
    20     9    10 1   
    21     9    34 1   
    22     9    35 1   
    23    10    12 1   
    24    10    24 1   
    25    11    24 ar  
    26    11    25 ar  
    27    11    36 1   
    28    12    37 1   
    29    12    38 1   
    30    13    14 1   
    31    13    20 2   
    32    13    39 1   
    33    14    15 ar  
    34    14    16 ar  
    35    15    17 ar  
    36    16    46 1   
    37    17    18 1   
    38    17    19 ar  
    39    19    40 1   
    40    20    22 1   
    41    21    41 1   
    42    21    42 1   
    43    21    43 1   
    44    22    25 ar  
    45    23    24 ar  
    46    23    44 1   
    47    25    45 1   
    48    29    46 1   
    49    30    46 1   
@<TRIPOS>SUBSTRUCTURE
     1 0TP         1 TEMP              0 ****  ****    0 ROOT
