@<TRIPOS>MOLECULE
0TQ
   87    91     1     0     0
SMALL
abcg2


@<TRIPOS>ATOM
      1 O8          -1.2120    -4.7270    -0.5430 o          1 0TQ      -0.603000
      2 C34         -1.4100    -3.6150    -0.0490 c          1 0TQ       0.582200
      3 N3          -0.6610    -3.0820     0.9780 ns         1 0TQ      -0.384100
      4 C35         -2.4140    -2.6270    -0.3870 cc         1 0TQ      -0.350400
      5 C36         -3.3520    -2.8170    -1.4000 c2         1 0TQ       0.287800
      6 C37         -4.3450    -1.7480    -1.7200 c3         1 0TQ      -0.092900
      7 N4          -3.3730    -3.9430    -2.0920 nu         1 0TQ      -0.797200
      8 C38         -4.2690    -4.2770    -3.1780 c3         1 0TQ       0.207100
      9 C32         -2.1990    -1.4950     0.4840 ca         1 0TQ      -0.060800
     10 C31         -1.1000    -1.8280     1.3170 ca         1 0TQ       0.095600
     11 C30         -0.6220    -0.9760     2.2930 ca         1 0TQ      -0.171000
     12 C29         -1.2180     0.2720     2.4350 ca         1 0TQ       0.001000
     13 C33         -2.7900    -0.2520     0.6460 ca         1 0TQ      -0.003000
     14 C28         -2.2800     0.6180     1.6120 ca         1 0TQ      -0.326500
     15 S1          -2.9160     2.2650     1.6450 sy         1 0TQ       1.193600
     16 O4          -4.3660     2.2150     1.5230 o          1 0TQ      -0.547500
     17 O5          -2.3350     2.9300     2.8060 o          1 0TQ      -0.547500
     18 N2          -2.3350     2.9560     0.2720 n3         1 0TQ      -0.791500
     19 C15         -3.2130     3.4210    -0.7960 c3         1 0TQ       0.235800
     20 C16         -3.3670     4.9410    -0.8490 c3         1 0TQ      -0.079700
     21 C24         -4.2590     5.3020    -2.0320 c3         1 0TQ      -0.091600
     22 C23         -3.9150     5.5110     0.4530 c3         1 0TQ      -0.091600
     23 C14         -0.8970     3.1520     0.1530 c3         1 0TQ       0.192800
     24 C6          -0.1730     1.9930    -0.5340 c3         1 0TQ       0.117300
     25 O3          -0.5030     1.8670    -1.8980 oh         1 0TQ      -0.651000
     26 C5           1.3450     2.0400    -0.3000 c3         1 0TQ       0.098700
     27 C7           2.0450     3.2000    -1.0210 c3         1 0TQ      -0.044100
     28 C8           3.5140     3.2410    -0.7130 ca         1 0TQ      -0.082300
     29 C10          4.4370     2.6060    -1.5390 ca         1 0TQ      -0.097500
     30 C12          5.7900     2.6090    -1.2290 ca         1 0TQ      -0.107000
     31 C13          6.2420     3.2520    -0.0840 ca         1 0TQ      -0.105000
     32 C11          5.3300     3.8930     0.7450 ca         1 0TQ      -0.107000
     33 C9           3.9780     3.8840     0.4320 ca         1 0TQ      -0.097500
     34 N1           1.9040     0.7650    -0.6810 ns         1 0TQ      -0.491900
     35 C3           2.6240    -0.0010     0.1570 c          1 0TQ       0.644100
     36 O2           3.0450     0.3350     1.2440 o          1 0TQ      -0.539000
     37 O1           2.8110    -1.2200    -0.3690 os         1 0TQ      -0.454100
     38 C4           3.5590    -2.1590     0.3940 c5         1 0TQ       0.173300
     39 C2           3.6030    -3.4860    -0.3640 c5         1 0TQ      -0.134700
     40 C26          2.4590    -3.7560    -1.3470 c5         1 0TQ      -0.095400
     41 C27          2.2630    -5.2590    -1.2170 c5         1 0TQ       0.146600
     42 O7           2.6640    -5.5990     0.1140 os         1 0TQ      -0.434000
     43 C25          3.3010    -4.5340     0.7080 c5         1 0TQ       0.380300
     44 O6           2.4200    -3.8660     1.5950 os         1 0TQ      -0.482000
     45 C1           2.9200    -2.5510     1.7420 c5         1 0TQ       0.127600
     46 H1           0.1580    -3.5390     1.3580 hn         1 0TQ       0.362500
     47 H2          -3.8270    -0.8430    -2.0420 hc         1 0TQ       0.065700
     48 H3          -5.0410    -2.0250    -2.5060 hc         1 0TQ       0.065700
     49 H4          -4.9280    -1.4990    -0.8340 hc         1 0TQ       0.065700
     50 H5          -2.6720    -4.6310    -1.8360 hn         1 0TQ       0.539000
     51 H6          -4.0270    -5.2830    -3.5080 h1         1 0TQ       0.047367
     52 H7          -5.3120    -4.2670    -2.8640 h1         1 0TQ       0.047367
     53 H8          -4.1510    -3.6040    -4.0270 h1         1 0TQ       0.047367
     54 H9           0.1970    -1.2620     2.9400 ha         1 0TQ       0.127000
     55 H10         -0.8390     0.9620     3.1750 ha         1 0TQ       0.140000
     56 H11         -3.6240     0.0600     0.0350 ha         1 0TQ       0.121000
     57 H12         -2.8180     3.0540    -1.7450 h1         1 0TQ       0.060700
     58 H13         -4.1940     2.9650    -0.6720 h1         1 0TQ       0.060700
     59 H14         -2.3800     5.3840    -1.0300 hc         1 0TQ       0.040700
     60 H15         -5.2750     4.9260    -1.8880 hc         1 0TQ       0.038700
     61 H16         -4.3220     6.3830    -2.1610 hc         1 0TQ       0.038700
     62 H17         -3.8790     4.8800    -2.9650 hc         1 0TQ       0.038700
     63 H18         -3.2540     5.3070     1.2960 hc         1 0TQ       0.038700
     64 H19         -4.0290     6.5930     0.3830 hc         1 0TQ       0.038700
     65 H20         -4.8940     5.0860     0.6840 hc         1 0TQ       0.038700
     66 H21         -0.7340     4.0900    -0.3860 h1         1 0TQ       0.064700
     67 H22         -0.4650     3.3130     1.1430 h1         1 0TQ       0.064700
     68 H23         -0.5140     1.0640    -0.0760 h1         1 0TQ       0.097700
     69 H24         -0.2810     2.6840    -2.3570 ho         1 0TQ       0.439000
     70 H25          1.5060     2.1540     0.7740 h1         1 0TQ       0.090700
     71 H26          1.9020     3.1070    -2.1010 hc         1 0TQ       0.049200
     72 H27          1.5790     4.1420    -0.7180 hc         1 0TQ       0.049200
     73 H28          4.0960     2.1090    -2.4400 ha         1 0TQ       0.108500
     74 H29          6.4930     2.1110    -1.8850 ha         1 0TQ       0.112000
     75 H30          7.2960     3.2590     0.1580 ha         1 0TQ       0.112000
     76 H31          5.6720     4.4010     1.6380 ha         1 0TQ       0.112000
     77 H32          3.2750     4.3890     1.0840 ha         1 0TQ       0.108500
     78 H33          1.6140     0.3710    -1.5640 hn         1 0TQ       0.334500
     79 H34          4.5640    -1.7660     0.5580 h1         1 0TQ       0.071700
     80 H35          4.5710    -3.6560    -0.8370 hc         1 0TQ       0.078700
     81 H36          1.5500    -3.2300    -1.0560 hc         1 0TQ       0.067200
     82 H37          2.6990    -3.4620    -2.3670 hc         1 0TQ       0.067200
     83 H38          1.2250    -5.5570    -1.3680 h1         1 0TQ       0.059200
     84 H39          2.8880    -5.8100    -1.9260 h1         1 0TQ       0.059200
     85 H40          4.1800    -4.8930     1.2590 h2         1 0TQ       0.076700
     86 H41          3.6860    -2.5130     2.5250 h1         1 0TQ       0.066200
     87 H42          2.1030    -1.9020     2.0500 h1         1 0TQ       0.066200
@<TRIPOS>BOND
     1     1     2 2   
     2     2     3 1   
     3     2     4 1   
     4     3    10 1   
     5     3    46 1   
     6     4     5 2   
     7     4     9 1   
     8     5     6 1   
     9     5     7 1   
    10     6    47 1   
    11     6    48 1   
    12     6    49 1   
    13     7     8 1   
    14     7    50 1   
    15     8    51 1   
    16     8    52 1   
    17     8    53 1   
    18     9    10 ar  
    19     9    13 ar  
    20    10    11 ar  
    21    11    12 ar  
    22    11    54 1   
    23    12    14 ar  
    24    12    55 1   
    25    13    14 ar  
    26    13    56 1   
    27    14    15 1   
    28    15    16 2   
    29    15    17 2   
    30    15    18 1   
    31    18    19 1   
    32    18    23 1   
    33    19    20 1   
    34    19    57 1   
    35    19    58 1   
    36    20    21 1   
    37    20    22 1   
    38    20    59 1   
    39    21    60 1   
    40    21    61 1   
    41    21    62 1   
    42    22    63 1   
    43    22    64 1   
    44    22    65 1   
    45    23    24 1   
    46    23    66 1   
    47    23    67 1   
    48    24    25 1   
    49    24    26 1   
    50    24    68 1   
    51    25    69 1   
    52    26    27 1   
    53    26    34 1   
    54    26    70 1   
    55    27    28 1   
    56    27    71 1   
    57    27    72 1   
    58    28    29 ar  
    59    28    33 ar  
    60    29    30 ar  
    61    29    73 1   
    62    30    31 ar  
    63    30    74 1   
    64    31    32 ar  
    65    31    75 1   
    66    32    33 ar  
    67    32    76 1   
    68    33    77 1   
    69    34    35 1   
    70    34    78 1   
    71    35    36 2   
    72    35    37 1   
    73    37    38 1   
    74    38    39 1   
    75    38    45 1   
    76    38    79 1   
    77    39    40 1   
    78    39    43 1   
    79    39    80 1   
    80    40    41 1   
    81    40    81 1   
    82    40    82 1   
    83    41    42 1   
    84    41    83 1   
    85    41    84 1   
    86    42    43 1   
    87    43    44 1   
    88    43    85 1   
    89    44    45 1   
    90    45    86 1   
    91    45    87 1   
@<TRIPOS>SUBSTRUCTURE
     1 0TQ         1 TEMP              0 ****  ****    0 ROOT
