@<TRIPOS>MOLECULE
0TQ
   87    91     1     0     0
SMALL
No Charge or Current Charge


@<TRIPOS>ATOM
      1 O8          -1.2580    -4.6840    -0.4540 o          1 0TQ      -0.603000
      2 C34         -1.3930    -3.5930     0.0800 c          1 0TQ       0.582200
      3 N3          -0.6170    -3.0740     1.0740 ns         1 0TQ      -0.384100
      4 C35         -2.3870    -2.5220    -0.1910 cc         1 0TQ      -0.350400
      5 C36         -3.3240    -2.5850    -1.1770 c2         1 0TQ       0.287800
      6 C37         -4.0890    -1.3870    -1.7210 c3         1 0TQ      -0.092900
      7 N4          -3.4670    -3.7740    -1.8880 nu         1 0TQ      -0.797200
      8 C38         -4.3770    -4.0630    -3.0130 c3         1 0TQ       0.207100
      9 C32         -2.0880    -1.4240     0.7440 ca         1 0TQ      -0.060800
     10 C31         -0.9860    -1.8010     1.4950 ca         1 0TQ       0.095600
     11 C30         -0.4380    -0.9910     2.4940 ca         1 0TQ      -0.171000
     12 C29         -1.0280     0.2690     2.7160 ca         1 0TQ       0.001000
     13 C33         -2.7200    -0.1920     0.9870 ca         1 0TQ      -0.003000
     14 C28         -2.1630     0.6690     1.9620 ca         1 0TQ      -0.326500
     15 S1          -2.8860     2.2940     2.2240 sy         1 0TQ       1.193600
     16 O4          -4.3470     2.1630     2.1900 o          1 0TQ      -0.547500
     17 O5          -2.2340     2.9700     3.3500 o          1 0TQ      -0.547500
     18 N2          -2.4500     3.1780     0.8200 n3         1 0TQ      -0.791500
     19 C15         -3.3210     3.0000    -0.3730 c3         1 0TQ       0.235800
     20 C16         -3.2960     4.1790    -1.3860 c3         1 0TQ      -0.079700
     21 C24         -4.1500     3.8540    -2.6330 c3         1 0TQ      -0.091600
     22 C23         -3.7420     5.5140    -0.7420 c3         1 0TQ      -0.091600
     23 C14         -0.9830     3.3180     0.5540 c3         1 0TQ       0.192800
     24 C6          -0.2580     2.1700    -0.2380 c3         1 0TQ       0.117300
     25 O3          -0.5610     2.2050    -1.6520 oh         1 0TQ      -0.651000
     26 C5           1.2860     2.1600    -0.0270 c3         1 0TQ       0.098700
     27 C7           2.0300     3.3990    -0.5990 c3         1 0TQ      -0.044100
     28 C8           3.5240     3.3880    -0.2950 ca         1 0TQ      -0.082300
     29 C10          4.4470     2.9500    -1.2650 ca         1 0TQ      -0.097500
     30 C12          5.8230     2.9330    -0.9780 ca         1 0TQ      -0.107000
     31 C13          6.2850     3.3540     0.2800 ca         1 0TQ      -0.105000
     32 C11          5.3690     3.7930     1.2510 ca         1 0TQ      -0.107000
     33 C9           3.9930     3.8090     0.9650 ca         1 0TQ      -0.097500
     34 N1           1.8360     0.9100    -0.5620 ns         1 0TQ      -0.491900
     35 C3           2.7200     0.0970     0.0850 c          1 0TQ       0.644100
     36 O2           3.2430     0.3400     1.1610 o          1 0TQ      -0.539000
     37 O1           2.7890    -1.0800    -0.6060 os         1 0TQ      -0.454100
     38 C4           3.5370    -2.1450     0.0470 c5         1 0TQ       0.173300
     39 C2           3.4920    -3.4290    -0.8540 c5         1 0TQ      -0.134700
     40 C26          2.1710    -3.5190    -1.6870 c5         1 0TQ      -0.095400
     41 C27          2.0300    -5.0580    -1.7880 c5         1 0TQ       0.146600
     42 O7           2.5470    -5.5870    -0.5390 os         1 0TQ      -0.434000
     43 C25          3.2330    -4.5420     0.1790 c5         1 0TQ       0.380300
     44 O6           2.3050    -3.9340     1.0940 os         1 0TQ      -0.482000
     45 C1           2.8150    -2.6110     1.3640 c5         1 0TQ       0.127600
     46 H1           0.2310    -3.5390     1.3810 hn         1 0TQ       0.362500
     47 H2          -3.4480    -0.4990    -1.7400 hc         1 0TQ       0.065700
     48 H3          -4.4450    -1.5100    -2.7480 hc         1 0TQ       0.065700
     49 H4          -4.9600    -1.1680    -1.0950 hc         1 0TQ       0.065700
     50 H5          -2.7990    -4.5090    -1.6190 hn         1 0TQ       0.539000
     51 H6          -4.3120    -5.1230    -3.2910 h1         1 0TQ       0.047367
     52 H7          -5.4170    -3.8440    -2.7350 h1         1 0TQ       0.047367
     53 H8          -4.1100    -3.4630    -3.8930 h1         1 0TQ       0.047367
     54 H9           0.4110    -1.3190     3.0860 ha         1 0TQ       0.127000
     55 H10         -0.6060     0.9250     3.4760 ha         1 0TQ       0.140000
     56 H11         -3.6080     0.1070     0.4400 ha         1 0TQ       0.121000
     57 H12         -3.0550     2.0710    -0.8960 h1         1 0TQ       0.060700
     58 H13         -4.3710     2.8900    -0.0760 h1         1 0TQ       0.060700
     59 H14         -2.2690     4.3170    -1.7400 hc         1 0TQ       0.040700
     60 H15         -5.2030     3.7140    -2.3610 hc         1 0TQ       0.038700
     61 H16         -4.0890     4.6660    -3.3680 hc         1 0TQ       0.038700
     62 H17         -3.7950     2.9350    -3.1160 hc         1 0TQ       0.038700
     63 H18         -3.0850     5.7860     0.0920 hc         1 0TQ       0.038700
     64 H19         -3.7060     6.3290    -1.4750 hc         1 0TQ       0.038700
     65 H20         -4.7680     5.4400    -0.3610 hc         1 0TQ       0.038700
     66 H21         -0.8070     4.2560     0.0120 h1         1 0TQ       0.064700
     67 H22         -0.4580     3.4450     1.5110 h1         1 0TQ       0.064700
     68 H23         -0.6050     1.2160     0.1660 h1         1 0TQ       0.097700
     69 H24         -0.2780     3.0770    -1.9980 ho         1 0TQ       0.439000
     70 H25          1.4550     2.1550     1.0590 h1         1 0TQ       0.090700
     71 H26          1.8740     3.4520    -1.6830 hc         1 0TQ       0.049200
     72 H27          1.5860     4.3130    -0.1850 hc         1 0TQ       0.049200
     73 H28          4.0980     2.6170    -2.2400 ha         1 0TQ       0.108500
     74 H29          6.5300     2.5910    -1.7310 ha         1 0TQ       0.112000
     75 H30          7.3500     3.3400     0.5020 ha         1 0TQ       0.112000
     76 H31          5.7250     4.1180     2.2260 ha         1 0TQ       0.112000
     77 H32          3.2910     4.1470     1.7240 ha         1 0TQ       0.108500
     78 H33          1.4500     0.5440    -1.4220 hn         1 0TQ       0.334500
     79 H34          4.5670    -1.8160     0.2460 h1         1 0TQ       0.071700
     80 H35          4.4020    -3.5940    -1.4420 hc         1 0TQ       0.078700
     81 H36          1.3000    -3.0870    -1.1820 hc         1 0TQ       0.067200
     82 H37          2.2520    -3.0400    -2.6690 hc         1 0TQ       0.067200
     83 H38          0.9910    -5.3820    -1.9350 h1         1 0TQ       0.059200
     84 H39          2.6380    -5.4570    -2.6110 h1         1 0TQ       0.059200
     85 H40          4.1380    -4.8970     0.6920 h2         1 0TQ       0.076700
     86 H41          3.5260    -2.6680     2.1990 h1         1 0TQ       0.066200
     87 H42          1.9910    -1.9540     1.6560 h1         1 0TQ       0.066200
@<TRIPOS>BOND
     1     1     2 2   
     2     2     3 1   
     3     2     4 1   
     4     3    10 1   
     5     3    46 1   
     6     4     5 2   
     7     4     9 1   
     8     5     6 1   
     9     5     7 1   
    10     6    47 1   
    11     6    48 1   
    12     6    49 1   
    13     7     8 1   
    14     7    50 1   
    15     8    51 1   
    16     8    52 1   
    17     8    53 1   
    18     9    10 ar  
    19     9    13 ar  
    20    10    11 ar  
    21    11    12 ar  
    22    11    54 1   
    23    12    14 ar  
    24    12    55 1   
    25    13    14 ar  
    26    13    56 1   
    27    14    15 1   
    28    15    16 2   
    29    15    17 2   
    30    15    18 1   
    31    18    19 1   
    32    18    23 1   
    33    19    20 1   
    34    19    57 1   
    35    19    58 1   
    36    20    21 1   
    37    20    22 1   
    38    20    59 1   
    39    21    60 1   
    40    21    61 1   
    41    21    62 1   
    42    22    63 1   
    43    22    64 1   
    44    22    65 1   
    45    23    24 1   
    46    23    66 1   
    47    23    67 1   
    48    24    25 1   
    49    24    26 1   
    50    24    68 1   
    51    25    69 1   
    52    26    27 1   
    53    26    34 1   
    54    26    70 1   
    55    27    28 1   
    56    27    71 1   
    57    27    72 1   
    58    28    29 ar  
    59    28    33 ar  
    60    29    30 ar  
    61    29    73 1   
    62    30    31 ar  
    63    30    74 1   
    64    31    32 ar  
    65    31    75 1   
    66    32    33 ar  
    67    32    76 1   
    68    33    77 1   
    69    34    35 1   
    70    34    78 1   
    71    35    36 2   
    72    35    37 1   
    73    37    38 1   
    74    38    39 1   
    75    38    45 1   
    76    38    79 1   
    77    39    40 1   
    78    39    43 1   
    79    39    80 1   
    80    40    41 1   
    81    40    81 1   
    82    40    82 1   
    83    41    42 1   
    84    41    83 1   
    85    41    84 1   
    86    42    43 1   
    87    43    44 1   
    88    43    85 1   
    89    44    45 1   
    90    45    86 1   
    91    45    87 1   
@<TRIPOS>SUBSTRUCTURE
     1 0TQ         1 TEMP              0 ****  ****    0 ROOT
