@<TRIPOS>MOLECULE
0TR
   15    15     1     0     0
SMALL
abcg2


@<TRIPOS>ATOM
      1 CA1         -0.7590    -0.8280     0.0360 c          1 0TR       0.569500
      2 OA1         -1.8150    -1.4550     0.0600 o          1 0TR      -0.522100
      3 CA2         -0.8270     0.6490     0.0230 cc         1 0TR       0.081900
      4 OA2         -2.0950     1.0560     0.0470 oh         1 0TR      -0.495100
      5 CA3          0.1950     1.5560    -0.0130 cd         1 0TR      -0.293000
      6 CB3          1.5950     1.3750    -0.0370 cd         1 0TR      -0.098000
      7 CA5          1.7930    -1.0940    -0.0010 cc         1 0TR      -0.092000
      8 CA6          0.5030    -1.5280     0.0250 cd         1 0TR      -0.295200
      9 CAE          2.3140     0.2190    -0.0300 cc         1 0TR      -0.218000
     10 HA6          0.3720    -2.6040     0.0420 ha         1 0TR       0.195000
     11 HA2         -2.1470     2.0200     0.0410 ho         1 0TR       0.464000
     12 HAE          3.3930     0.3060    -0.0490 ha         1 0TR       0.181000
     13 HA5          2.5380    -1.8810     0.0010 ha         1 0TR       0.175000
     14 HA3         -0.1120     2.5980    -0.0200 ha         1 0TR       0.171000
     15 HB3          2.1640     2.2960    -0.0630 ha         1 0TR       0.175000
@<TRIPOS>BOND
     1     1     2 2   
     2     1     3 1   
     3     1     8 1   
     4     3     4 1   
     5     3     5 2   
     6     4    11 1   
     7     5     6 1   
     8     5    14 1   
     9     6     9 2   
    10     6    15 1   
    11     7     8 2   
    12     7     9 1   
    13     7    13 1   
    14     8    10 1   
    15     9    12 1   
@<TRIPOS>SUBSTRUCTURE
     1 0TR         1 TEMP              0 ****  ****    0 ROOT
