@<TRIPOS>MOLECULE
0TR
   15    15     1     0     0
SMALL
No Charge or Current Charge


@<TRIPOS>ATOM
      1 CA1         -0.7600    -0.8490     0.0410 c          1 0TR       0.569500
      2 OA1         -1.7800    -1.5360     0.0690 o          1 0TR      -0.522100
      3 CA2         -0.8450     0.6570     0.0230 cc         1 0TR       0.081900
      4 OA2         -2.1280     1.1090     0.0410 oh         1 0TR      -0.495100
      5 CA3          0.1620     1.6060    -0.0090 cd         1 0TR      -0.293000
      6 CB3          1.5850     1.4030    -0.0330 cd         1 0TR      -0.098000
      7 CA5          1.8150    -1.1360    -0.0040 cc         1 0TR      -0.092000
      8 CA6          0.5170    -1.5820     0.0270 cd         1 0TR      -0.295200
      9 CAE          2.2830     0.2140    -0.0300 cc         1 0TR      -0.218000
     10 HA6          0.3520    -2.6540     0.0440 ha         1 0TR       0.195000
     11 HA2         -2.0980     2.0880     0.0270 ho         1 0TR       0.464000
     12 HAE          3.3670     0.3030    -0.0520 ha         1 0TR       0.181000
     13 HA5          2.5960    -1.8950    -0.0080 ha         1 0TR       0.175000
     14 HA3         -0.1450     2.6490    -0.0170 ha         1 0TR       0.171000
     15 HB3          2.1920     2.3070    -0.0560 ha         1 0TR       0.175000
@<TRIPOS>BOND
     1     1     2 2   
     2     1     3 1   
     3     1     8 1   
     4     3     4 1   
     5     3     5 2   
     6     4    11 1   
     7     5     6 1   
     8     5    14 1   
     9     6     9 2   
    10     6    15 1   
    11     7     8 2   
    12     7     9 1   
    13     7    13 1   
    14     8    10 1   
    15     9    12 1   
@<TRIPOS>SUBSTRUCTURE
     1 0TR         1 TEMP              0 ****  ****    0 ROOT
