@<TRIPOS>MOLECULE
0TS
  108   112     1     0     0
SMALL
No Charge or Current Charge


@<TRIPOS>ATOM
      1 C1A          7.2150    -3.8770    -0.7620 c6         1 0TS       0.284300
      2 C2A          7.1190    -3.1410    -2.1330 c6         1 0TS       0.111300
      3 C3A          7.3740    -1.6250    -1.9040 c6         1 0TS       0.177300
      4 C4A          6.3800    -1.0520    -0.8400 c6         1 0TS       0.150300
      5 C5A          6.4990    -1.9080     0.4690 c6         1 0TS       0.135300
      6 C6A          5.5080    -1.5000     1.6070 c3         1 0TS       0.168600
      7 O2A          8.0570    -3.6580    -3.1090 oh         1 0TS      -0.722000
      8 O3A          7.2980    -0.9400    -3.1670 oh         1 0TS      -0.687000
      9 O4A          6.6390     0.3620    -0.6210 os         1 0TS      -0.441000
     10 O5A          6.2690    -3.3090     0.1600 os         1 0TS      -0.415000
     11 O6A          5.5590    -2.3800     2.7470 oh         1 0TS      -0.708000
     12 C1B          5.4910     1.1890    -0.3400 c6         1 0TS       0.368300
     13 C2B          5.9530     2.6210     0.0690 c6         1 0TS       0.106300
     14 C3B          4.6950     3.4950     0.3370 c6         1 0TS       0.184300
     15 C4B          3.7460     3.4910    -0.9010 c6         1 0TS       0.033300
     16 C5B          3.4390     2.0160    -1.3110 c6         1 0TS       0.147300
     17 C6B          2.5830     1.9040    -2.6160 c3         1 0TS       0.171600
     18 O2B          6.8310     2.6180     1.2230 oh         1 0TS      -0.728000
     19 O3B          5.1150     4.8230     0.6760 oh         1 0TS      -0.645000
     20 O5B          4.6720     1.2860    -1.5180 os         1 0TS      -0.445000
     21 O6B          2.1830     0.5510    -2.9040 oh         1 0TS      -0.713000
     22 C1C          1.2650     3.5590     0.5620 c6         1 0TS       0.245300
     23 C2C          0.1660     4.4020     1.2750 c6         1 0TS       0.117300
     24 C3C         -0.6290     3.4780     2.2400 c6         1 0TS       0.175300
     25 C4C         -1.2190     2.2520     1.4700 c6         1 0TS       0.156300
     26 C5C         -0.0500     1.5200     0.7270 c6         1 0TS       0.132300
     27 C6C         -0.4960     0.3060    -0.1510 c3         1 0TS       0.167600
     28 O2C          0.7220     5.5200     2.0080 oh         1 0TS      -0.724000
     29 O3C         -1.6340     4.2580     2.9130 oh         1 0TS      -0.688000
     30 O4C         -1.9410     1.3800     2.3840 os         1 0TS      -0.449000
     31 O5C          0.6420     2.4610    -0.1310 os         1 0TS      -0.427000
     32 O6C          0.5820    -0.2940    -0.9030 oh         1 0TS      -0.733000
     33 C1D         -3.1200     0.7350     1.8570 c6         1 0TS       0.367300
     34 C2D         -3.6390    -0.3220     2.8800 c6         1 0TS       0.105300
     35 C3D         -4.9240    -0.9780     2.3080 c6         1 0TS       0.178300
     36 C4D         -5.9920     0.1140     1.9760 c6         1 0TS       0.053300
     37 C5D         -5.3540     1.1910     1.0390 c6         1 0TS       0.179300
     38 C6D         -6.3190     2.3890     0.7470 c3         1 0TS       0.168600
     39 O2D         -2.6460    -1.3290     3.1980 oh         1 0TS      -0.729000
     40 O3D         -5.4200    -1.9340     3.2560 oh         1 0TS      -0.646000
     41 O5D         -4.1470     1.7200     1.6490 os         1 0TS      -0.449000
     42 O6D         -5.7150     3.4310    -0.0460 oh         1 0TS      -0.705000
     43 O4E         -6.1580    -4.0620    -3.3180 oh         1 0TS      -0.718000
     44 C4E         -6.7010    -3.0450    -2.4560 c6         1 0TS       0.150300
     45 C5E         -5.5910    -2.2950    -1.6540 c6         1 0TS       0.158300
     46 O5E         -6.2040    -1.3270    -0.7640 os         1 0TS      -0.438000
     47 C6E         -4.5880    -1.5380    -2.5830 c3         1 0TS       0.171600
     48 O6E         -3.5980    -0.7790    -1.8580 oh         1 0TS      -0.726000
     49 C3E         -7.7110    -3.6880    -1.4590 c6         1 0TS       0.136300
     50 O3E         -8.7840    -4.3370    -2.1650 oh         1 0TS      -0.666000
     51 C2E         -8.2740    -2.6100    -0.4880 c6         1 0TS       0.125300
     52 O2E         -9.1890    -3.2190     0.4520 oh         1 0TS      -0.716000
     53 C1E         -7.0790    -1.9020     0.2240 c6         1 0TS       0.262300
     54 S4B          2.2250     4.5560    -0.6680 ss         1 0TS      -0.352000
     55 S4D         -7.6330    -0.5480     1.3580 ss         1 0TS      -0.379000
     56 S1A          6.7750    -5.6770    -0.9720 sh         1 0TS      -0.413800
     57 H1           8.2340    -3.8030    -0.3530 h2         1 0TS       0.062700
     58 H2           6.0900    -3.2640    -2.5040 h1         1 0TS       0.069700
     59 H3           8.3910    -1.5160    -1.4970 h1         1 0TS       0.046700
     60 H4           5.3620    -1.1710    -1.2420 h1         1 0TS       0.079700
     61 H5           7.5190    -1.8050     0.8680 h1         1 0TS       0.057700
     62 H6           5.7560    -0.4800     1.9280 h1         1 0TS       0.032200
     63 H7           4.4920    -1.4810     1.1900 h1         1 0TS       0.032200
     64 H8           7.9070    -4.6330    -3.1630 ho         1 0TS       0.527000
     65 H9           7.7140    -1.5720    -3.8030 ho         1 0TS       0.519000
     66 H10          4.8560    -2.0870     3.3730 ho         1 0TS       0.506000
     67 H11          4.9000     0.7520     0.4760 h2         1 0TS       0.023700
     68 H12          6.4830     3.0470    -0.7970 h1         1 0TS       0.074700
     69 H13          4.1560     3.0550     1.1890 h1         1 0TS       0.037700
     70 H14          4.2980     3.9500    -1.7340 h1         1 0TS       0.114700
     71 H15          2.8920     1.5200    -0.4980 h1         1 0TS       0.040700
     72 H16          1.6920     2.5360    -2.5140 h1         1 0TS       0.062700
     73 H17          3.1720     2.3130    -3.4480 h1         1 0TS       0.062700
     74 H18          7.5580     1.9800     1.0180 ho         1 0TS       0.525000
     75 H19          5.9190     4.6910     1.2290 ho         1 0TS       0.463000
     76 H20          1.5960     0.2740    -2.1410 ho         1 0TS       0.521000
     77 H21          1.9780     3.1790     1.3080 h2         1 0TS       0.059700
     78 H22         -0.5240     4.7690     0.5000 h1         1 0TS       0.068700
     79 H23          0.0800     3.0880     2.9860 h1         1 0TS       0.044700
     80 H24         -1.9210     2.6400     0.7170 h1         1 0TS       0.080700
     81 H25          0.6650     1.1420     1.4730 h1         1 0TS       0.054700
     82 H26         -0.9330    -0.4470     0.5180 h1         1 0TS       0.041700
     83 H27         -1.2880     0.6440    -0.8320 h1         1 0TS       0.041700
     84 H28          1.3190     6.0010     1.3850 ho         1 0TS       0.531000
     85 H29         -1.1920     5.1270     3.0690 ho         1 0TS       0.518000
     86 H30          0.3680    -1.2580    -0.9680 ho         1 0TS       0.518000
     87 H31         -2.8910     0.2390     0.9050 h2         1 0TS       0.041700
     88 H32         -3.9150     0.2240     3.7960 h1         1 0TS       0.070700
     89 H33         -4.6420    -1.4920     1.3780 h1         1 0TS       0.051700
     90 H34         -6.2330     0.6260     2.9190 h1         1 0TS       0.103700
     91 H35         -5.0880     0.7350     0.0750 h1         1 0TS       0.080700
     92 H36         -7.2060     2.0000     0.2290 h1         1 0TS       0.036200
     93 H37         -6.6570     2.7970     1.7100 h1         1 0TS       0.036200
     94 H38         -1.8360    -0.8410     3.4830 ho         1 0TS       0.523000
     95 H39         -4.6070    -2.3340     3.6450 ho         1 0TS       0.463000
     96 H40         -6.3720     4.1630    -0.1090 ho         1 0TS       0.502000
     97 H41         -6.9250    -4.6500    -3.5270 ho         1 0TS       0.526000
     98 H43         -5.0210    -3.0180    -1.0520 h1         1 0TS       0.061700
     99 H44         -4.0940    -2.2770    -3.2280 h1         1 0TS       0.041700
    100 H45         -5.1680    -0.8730    -3.2370 h1         1 0TS       0.041700
    101 H46         -3.0610    -0.3030    -2.5330 ho         1 0TS       0.509000
    102 H47         -7.1680    -4.4300    -0.8540 h1         1 0TS       0.055700
    103 H48         -9.5000    -4.4370    -1.4940 ho         1 0TS       0.466000
    104 H49         -8.8040    -1.8500    -1.0830 h1         1 0TS       0.064700
    105 H50         -9.4300    -2.5200     1.1060 ho         1 0TS       0.524000
    106 H51         -6.5300    -2.6350     0.8340 h2         1 0TS       0.075700
    107 H52          6.8360    -5.9670     0.3500 hs         1 0TS       0.223800
    108 H42         -7.2430    -2.3010    -3.0590 h1         1 0TS       0.055700
@<TRIPOS>BOND
     1     1     2 1   
     2     1    10 1   
     3     1    56 1   
     4     1    57 1   
     5     2     3 1   
     6     2     7 1   
     7     2    58 1   
     8     3     4 1   
     9     3     8 1   
    10     3    59 1   
    11     4     5 1   
    12     4     9 1   
    13     4    60 1   
    14     5     6 1   
    15     5    10 1   
    16     5    61 1   
    17     6    11 1   
    18     6    62 1   
    19     6    63 1   
    20     7    64 1   
    21     8    65 1   
    22     9    12 1   
    23    11    66 1   
    24    12    13 1   
    25    12    20 1   
    26    12    67 1   
    27    13    14 1   
    28    13    18 1   
    29    13    68 1   
    30    14    15 1   
    31    14    19 1   
    32    14    69 1   
    33    15    16 1   
    34    15    54 1   
    35    15    70 1   
    36    16    17 1   
    37    16    20 1   
    38    16    71 1   
    39    17    21 1   
    40    17    72 1   
    41    17    73 1   
    42    18    74 1   
    43    19    75 1   
    44    21    76 1   
    45    22    23 1   
    46    22    31 1   
    47    22    54 1   
    48    22    77 1   
    49    23    24 1   
    50    23    28 1   
    51    23    78 1   
    52    24    25 1   
    53    24    29 1   
    54    24    79 1   
    55    25    26 1   
    56    25    30 1   
    57    25    80 1   
    58    26    27 1   
    59    26    31 1   
    60    26    81 1   
    61    27    32 1   
    62    27    82 1   
    63    27    83 1   
    64    28    84 1   
    65    29    85 1   
    66    30    33 1   
    67    32    86 1   
    68    33    34 1   
    69    33    41 1   
    70    33    87 1   
    71    34    35 1   
    72    34    39 1   
    73    34    88 1   
    74    35    36 1   
    75    35    40 1   
    76    35    89 1   
    77    36    37 1   
    78    36    55 1   
    79    36    90 1   
    80    37    38 1   
    81    37    41 1   
    82    37    91 1   
    83    38    42 1   
    84    38    92 1   
    85    38    93 1   
    86    39    94 1   
    87    40    95 1   
    88    42    96 1   
    89    43    44 1   
    90    43    97 1   
    91    44    45 1   
    92    44    49 1   
    93    44   108 1   
    94    45    46 1   
    95    45    47 1   
    96    45    98 1   
    97    46    53 1   
    98    47    48 1   
    99    47    99 1   
   100    47   100 1   
   101    48   101 1   
   102    49    50 1   
   103    49    51 1   
   104    49   102 1   
   105    50   103 1   
   106    51    52 1   
   107    51    53 1   
   108    51   104 1   
   109    52   105 1   
   110    53    55 1   
   111    53   106 1   
   112    56   107 1   
@<TRIPOS>SUBSTRUCTURE
     1 0TS         1 TEMP              0 ****  ****    0 ROOT
