@<TRIPOS>MOLECULE
0TS
  108   112     1     0     0
SMALL
bcc


@<TRIPOS>ATOM
      1 C1A          8.1910    -3.3640     0.3680 c6         1 0TS       0.213200
      2 C2A          7.8200    -3.0300    -1.0780 c6         1 0TS       0.088100
      3 C3A          7.7020    -1.5150    -1.2320 c6         1 0TS       0.154100
      4 C4A          6.7620    -0.9440    -0.1790 c6         1 0TS       0.127100
      5 C5A          7.2150    -1.4070     1.2130 c6         1 0TS       0.112100
      6 C6A          6.2880    -0.9500     2.3200 c3         1 0TS       0.145400
      7 O2A          8.8030    -3.4580    -1.9820 oh         1 0TS      -0.599800
      8 O3A          7.2260    -1.1600    -2.4990 oh         1 0TS      -0.564800
      9 O4A          6.8150     0.4680    -0.2630 os         1 0TS      -0.394600
     10 O5A          7.2480    -2.8220     1.2490 os         1 0TS      -0.368600
     11 O6A          6.8130    -1.3880     3.5490 oh         1 0TS      -0.585800
     12 C1B          5.6090     1.1380    -0.2600 c6         1 0TS       0.321900
     13 C2B          5.8770     2.5950     0.1040 c6         1 0TS       0.083100
     14 C3B          4.5630     3.3700     0.0640 c6         1 0TS       0.161100
     15 C4B          3.8480     3.1410    -1.2640 c6         1 0TS      -0.014600
     16 C5B          3.7530     1.6440    -1.5950 c6         1 0TS       0.124100
     17 C6B          3.1870     1.3680    -2.9820 c3         1 0TS       0.148400
     18 O2B          6.3990     2.7230     1.4030 oh         1 0TS      -0.605800
     19 O3B          4.7690     4.7460     0.2210 oh         1 0TS      -0.582800
     20 O5B          5.0450     1.0720    -1.5390 os         1 0TS      -0.398600
     21 O6B          2.8280     0.0240    -3.1600 oh         1 0TS      -0.590800
     22 C1C          1.2480     2.9500    -0.1930 c6         1 0TS       0.174200
     23 C2C          0.2340     3.8110     0.5580 c6         1 0TS       0.094100
     24 C3C         -0.6130     2.9030     1.4480 c6         1 0TS       0.152100
     25 C4C         -1.2130     1.7520     0.6460 c6         1 0TS       0.133100
     26 C5C         -0.1110     1.0400    -0.1510 c6         1 0TS       0.109100
     27 C6C         -0.6420    -0.0300    -1.0820 c3         1 0TS       0.144400
     28 O2C          0.8630     4.7390     1.4010 oh         1 0TS      -0.601800
     29 O3C         -1.6590     3.6050     2.0580 oh         1 0TS      -0.565800
     30 O4C         -1.7900     0.8410     1.5620 os         1 0TS      -0.402600
     31 O5C          0.5820     1.9770    -0.9520 os         1 0TS      -0.380600
     32 O6C          0.4510    -0.7030    -1.6730 oh         1 0TS      -0.610800
     33 C1D         -3.0700     0.3900     1.3050 c6         1 0TS       0.320900
     34 C2D         -3.2620    -0.9210     2.0620 c6         1 0TS       0.082100
     35 C3D         -4.6870    -1.4140     1.8370 c6         1 0TS       0.155100
     36 C4D         -5.6800    -0.3170     2.2060 c6         1 0TS       0.005400
     37 C5D         -5.3300     0.9860     1.4670 c6         1 0TS       0.156100
     38 C6D         -6.1990     2.1490     1.8960 c3         1 0TS       0.145400
     39 O2D         -2.3970    -1.9270     1.5960 oh         1 0TS      -0.606800
     40 O3D         -4.9690    -2.5550     2.5990 oh         1 0TS      -0.583800
     41 O5D         -3.9890     1.3350     1.7660 os         1 0TS      -0.402600
     42 O6D         -5.8510     3.2790     1.1330 oh         1 0TS      -0.582800
     43 O4E         -7.8510    -2.7220    -3.5410 oh         1 0TS      -0.595800
     44 C4E         -8.0850    -2.0320    -2.3390 c6         1 0TS       0.127100
     45 C5E         -6.7540    -1.4810    -1.8310 c6         1 0TS       0.135100
     46 O5E         -6.9820    -0.8340    -0.5950 os         1 0TS      -0.391600
     47 C6E         -6.1290    -0.4690    -2.7670 c3         1 0TS       0.148400
     48 O6E         -4.8700    -0.1050    -2.2490 oh         1 0TS      -0.603800
     49 C3E         -8.6910    -2.9540    -1.2810 c6         1 0TS       0.113100
     50 O3E         -9.9640    -3.3380    -1.7390 oh         1 0TS      -0.603800
     51 C2E         -8.7640    -2.2790     0.0890 c6         1 0TS       0.102100
     52 O2E         -9.1800    -3.2500     1.0140 oh         1 0TS      -0.593800
     53 C1E         -7.3740    -1.7240     0.4110 c6         1 0TS       0.191200
     54 S4B          2.2330     3.9850    -1.2920 ss         1 0TS      -0.256200
     55 S4D         -7.4150    -0.8440     1.9840 ss         1 0TS      -0.283200
     56 S1A          8.2070    -5.1650     0.5700 sh         1 0TS      -0.365900
     57 H1           9.2000    -2.9860     0.5830 h2         1 0TS       0.062700
     58 H2           6.8410    -3.4820    -1.3000 h1         1 0TS       0.069700
     59 H3           8.7040    -1.0890    -1.0490 h1         1 0TS       0.046700
     60 H4           5.7440    -1.3090    -0.3690 h1         1 0TS       0.079700
     61 H5           8.2230    -1.0020     1.4030 h1         1 0TS       0.057700
     62 H6           6.2120     0.1420     2.2860 h1         1 0TS       0.032200
     63 H7           5.2820    -1.3530     2.1380 h1         1 0TS       0.032200
     64 H8           8.8190    -4.4210    -1.9890 ho         1 0TS       0.428000
     65 H9           7.8560    -1.4790    -3.1530 ho         1 0TS       0.420000
     66 H10          6.2370    -1.0670     4.2480 ho         1 0TS       0.407000
     67 H11          4.9080     0.6940     0.4710 h2         1 0TS       0.023700
     68 H12          6.5590     3.0160    -0.6490 h1         1 0TS       0.074700
     69 H13          3.9320     2.9730     0.8760 h1         1 0TS       0.037700
     70 H14          4.4150     3.6390    -2.0590 h1         1 0TS       0.114700
     71 H15          3.1110     1.1530    -0.8480 h1         1 0TS       0.040700
     72 H16          2.3420     2.0390    -3.1630 h1         1 0TS       0.062700
     73 H17          3.9530     1.6120    -3.7240 h1         1 0TS       0.062700
     74 H18          7.3230     2.4580     1.3910 ho         1 0TS       0.426000
     75 H19          5.1310     4.8990     1.1000 ho         1 0TS       0.424000
     76 H20          2.0220    -0.1380    -2.6440 ho         1 0TS       0.422000
     77 H21          1.9180     2.4810     0.5430 h2         1 0TS       0.059700
     78 H22         -0.4220     4.3020    -0.1760 h1         1 0TS       0.068700
     79 H23          0.0640     2.4640     2.2010 h1         1 0TS       0.044700
     80 H24         -1.9650     2.1560    -0.0450 h1         1 0TS       0.080700
     81 H25          0.5820     0.5680     0.5650 h1         1 0TS       0.054700
     82 H26         -1.2510    -0.7350    -0.5110 h1         1 0TS       0.041700
     83 H27         -1.2900     0.4330    -1.8390 h1         1 0TS       0.041700
     84 H28          1.3840     5.3440     0.8610 ho         1 0TS       0.432000
     85 H29         -1.2730     4.2740     2.6330 ho         1 0TS       0.419000
     86 H30          0.1100    -1.4600    -2.1590 ho         1 0TS       0.419000
     87 H31         -3.2280     0.2140     0.2240 h2         1 0TS       0.041700
     88 H32         -3.1150    -0.7270     3.1340 h1         1 0TS       0.070700
     89 H33         -4.7810    -1.6230     0.7600 h1         1 0TS       0.051700
     90 H34         -5.6070    -0.1320     3.2840 h1         1 0TS       0.103700
     91 H35         -5.4430     0.8250     0.3870 h1         1 0TS       0.080700
     92 H36         -7.2460     1.8710     1.7470 h1         1 0TS       0.036200
     93 H37         -6.0580     2.3200     2.9730 h1         1 0TS       0.036200
     94 H38         -1.5080    -1.7430     1.9180 ho         1 0TS       0.424000
     95 H39         -4.3470    -3.2460     2.3460 ho         1 0TS       0.424000
     96 H40         -6.4730     3.9800     1.3470 ho         1 0TS       0.403000
     97 H41         -8.6970    -3.0280    -3.8830 ho         1 0TS       0.427000
     98 H43         -6.0500    -2.3180    -1.6910 h1         1 0TS       0.061700
     99 H44         -6.0430    -0.9200    -3.7610 h1         1 0TS       0.041700
    100 H45         -6.8010     0.3940    -2.8580 h1         1 0TS       0.041700
    101 H46         -4.5160     0.6030    -2.7940 ho         1 0TS       0.410000
    102 H47         -8.0290    -3.8300    -1.1880 h1         1 0TS       0.055700
    103 H48        -10.2870    -4.0550    -1.1840 ho         1 0TS       0.427000
    104 H49         -9.4710    -1.4390     0.0340 h1         1 0TS       0.064700
    105 H50         -9.5460    -2.8160     1.7900 ho         1 0TS       0.425000
    106 H51         -6.6670    -2.5620     0.4870 h2         1 0TS       0.075700
    107 H52          9.1900    -5.2380     1.4740 hs         1 0TS       0.223800
    108 H42         -8.7730    -1.1850    -2.4950 h1         1 0TS       0.055700
@<TRIPOS>BOND
     1     1     2 1   
     2     1    10 1   
     3     1    56 1   
     4     1    57 1   
     5     2     3 1   
     6     2     7 1   
     7     2    58 1   
     8     3     4 1   
     9     3     8 1   
    10     3    59 1   
    11     4     5 1   
    12     4     9 1   
    13     4    60 1   
    14     5     6 1   
    15     5    10 1   
    16     5    61 1   
    17     6    11 1   
    18     6    62 1   
    19     6    63 1   
    20     7    64 1   
    21     8    65 1   
    22     9    12 1   
    23    11    66 1   
    24    12    13 1   
    25    12    20 1   
    26    12    67 1   
    27    13    14 1   
    28    13    18 1   
    29    13    68 1   
    30    14    15 1   
    31    14    19 1   
    32    14    69 1   
    33    15    16 1   
    34    15    54 1   
    35    15    70 1   
    36    16    17 1   
    37    16    20 1   
    38    16    71 1   
    39    17    21 1   
    40    17    72 1   
    41    17    73 1   
    42    18    74 1   
    43    19    75 1   
    44    21    76 1   
    45    22    23 1   
    46    22    31 1   
    47    22    54 1   
    48    22    77 1   
    49    23    24 1   
    50    23    28 1   
    51    23    78 1   
    52    24    25 1   
    53    24    29 1   
    54    24    79 1   
    55    25    26 1   
    56    25    30 1   
    57    25    80 1   
    58    26    27 1   
    59    26    31 1   
    60    26    81 1   
    61    27    32 1   
    62    27    82 1   
    63    27    83 1   
    64    28    84 1   
    65    29    85 1   
    66    30    33 1   
    67    32    86 1   
    68    33    34 1   
    69    33    41 1   
    70    33    87 1   
    71    34    35 1   
    72    34    39 1   
    73    34    88 1   
    74    35    36 1   
    75    35    40 1   
    76    35    89 1   
    77    36    37 1   
    78    36    55 1   
    79    36    90 1   
    80    37    38 1   
    81    37    41 1   
    82    37    91 1   
    83    38    42 1   
    84    38    92 1   
    85    38    93 1   
    86    39    94 1   
    87    40    95 1   
    88    42    96 1   
    89    43    44 1   
    90    43    97 1   
    91    44    45 1   
    92    44    49 1   
    93    44   108 1   
    94    45    46 1   
    95    45    47 1   
    96    45    98 1   
    97    46    53 1   
    98    47    48 1   
    99    47    99 1   
   100    47   100 1   
   101    48   101 1   
   102    49    50 1   
   103    49    51 1   
   104    49   102 1   
   105    50   103 1   
   106    51    52 1   
   107    51    53 1   
   108    51   104 1   
   109    52   105 1   
   110    53    55 1   
   111    53   106 1   
   112    56   107 1   
@<TRIPOS>SUBSTRUCTURE
     1 0TS         1 TEMP              0 ****  ****    0 ROOT
