@<TRIPOS>MOLECULE
0TU
   18    19     1     0     0
SMALL
No Charge or Current Charge


@<TRIPOS>ATOM
      1 Cl          -3.7740     0.3390    -0.0160 cl         1 0TU      -0.194000
      2 C1          -0.2710    -1.7010     0.0110 ca         1 0TU      -0.160000
      3 C2          -1.6430    -1.3920    -0.0000 ca         1 0TU      -0.050000
      4 C3          -1.1060     0.9870     0.0070 ca         1 0TU      -0.043000
      5 C4           0.2700     0.6830     0.0180 ca         1 0TU      -0.129800
      6 C5           0.6770    -0.6640     0.0200 ca         1 0TU       0.103600
      7 C6          -2.0570    -0.0480    -0.0020 ca         1 0TU       0.078000
      8 C7           1.2680     1.7550     0.0280 cc         1 0TU      -0.084200
      9 C8           2.6020     1.3760     0.0390 cd         1 0TU      -0.288200
     10 C9           3.0680    -0.0280     0.0410 c          1 0TU       0.561200
     11 N10          2.0500    -0.9440     0.0310 ns         1 0TU      -0.374100
     12 O11          4.2430    -0.3560     0.0500 o          1 0TU      -0.543000
     13 H2          -2.3830    -2.1880    -0.0070 ha         1 0TU       0.133000
     14 H3          -1.4390     2.0220     0.0050 ha         1 0TU       0.133000
     15 H7           0.9890     2.8070     0.0270 ha         1 0TU       0.191000
     16 H8           3.4010     2.1090     0.0460 ha         1 0TU       0.211000
     17 HN10         2.3270    -1.9170     0.0320 hn         1 0TU       0.328500
     18 H1           0.0500    -2.7400     0.0130 ha         1 0TU       0.126000
@<TRIPOS>BOND
     1     1     7 1   
     2     2     3 ar  
     3     2     6 ar  
     4     2    18 1   
     5     3     7 ar  
     6     3    13 1   
     7     4     5 ar  
     8     4     7 ar  
     9     4    14 1   
    10     5     6 ar  
    11     5     8 1   
    12     6    11 1   
    13     8     9 2   
    14     8    15 1   
    15     9    10 1   
    16     9    16 1   
    17    10    11 1   
    18    10    12 2   
    19    11    17 1   
@<TRIPOS>SUBSTRUCTURE
     1 0TU         1 TEMP              0 ****  ****    0 ROOT
