@<TRIPOS>MOLECULE
0TX
   48    49     1     0     0
SMALL
bcc


@<TRIPOS>ATOM
      1 CL           5.5080     2.3800     0.2590 cl         1 0TX      -0.110400
      2 N1           3.4000    -1.7730    -1.6840 nb         1 0TX      -0.705000
      3 C1           2.4080    -2.6270    -1.7630 ca         1 0TX       0.467200
      4 C2           1.2280    -2.5720    -1.0220 ca         1 0TX      -0.374300
      5 C3           1.0330    -1.5400    -0.1090 ca         1 0TX       0.257600
      6 C4           2.0960    -0.5760     0.0010 ca         1 0TX      -0.205300
      7 C5           2.0420     0.5360     0.8670 ca         1 0TX      -0.095000
      8 C6           3.0730     1.4340     0.9500 ca         1 0TX      -0.140000
      9 C7           4.2080     1.2390     0.1470 ca         1 0TX       0.043400
     10 C8           4.3040     0.1820    -0.7110 ca         1 0TX      -0.172300
     11 C9           3.2470    -0.7520    -0.8080 ca         1 0TX       0.442600
     12 C10         -1.1810    -2.3700     0.6480 c3         1 0TX       0.234500
     13 C11         -2.4550    -1.6590     1.0930 c3         1 0TX      -0.089400
     14 C12         -2.8950    -0.5350     0.1650 c3         1 0TX      -0.077400
     15 C13         -4.2070     0.0890     0.6240 c3         1 0TX       0.169800
     16 N3          -4.6350     1.2040    -0.2060 n3         1 0TX      -0.723600
     17 C14         -6.0750     1.4070    -0.1220 c3         1 0TX       0.168800
     18 C15         -6.8640     0.4180    -0.9650 c3         1 0TX      -0.089100
     19 C16         -3.9020     2.4210     0.1140 c3         1 0TX       0.168800
     20 C17         -3.9050     3.4360    -1.0170 c3         1 0TX      -0.089100
     21 C18         -0.8620    -3.5650     1.5430 c3         1 0TX      -0.119100
     22 H11          2.5320    -3.4450    -2.4660 h4         1 0TX       0.013100
     23 H21          0.4870    -3.3440    -1.1700 ha         1 0TX       0.140000
     24 H51          1.1770     0.7170     1.4920 ha         1 0TX       0.122000
     25 H61          3.0130     2.2790     1.6200 ha         1 0TX       0.146000
     26 H81          5.1780     0.0350    -1.3330 ha         1 0TX       0.165000
     27 HN21        -0.0980    -0.7340     1.3650 hn         1 0TX       0.430800
     28 H101        -1.3430    -2.7230    -0.3740 h1         1 0TX       0.065700
     29 H112        -3.2460    -2.4120     1.1610 hc         1 0TX       0.044700
     30 H111        -2.3180    -1.2740     2.1110 hc         1 0TX       0.044700
     31 H121        -2.1100     0.2240     0.1110 hc         1 0TX       0.053200
     32 H122        -3.0220    -0.9210    -0.8510 hc         1 0TX       0.053200
     33 H132        -4.9750    -0.6870     0.5920 h1         1 0TX       0.027700
     34 H131        -4.1250     0.3890     1.6830 h1         1 0TX       0.027700
     35 H142        -6.4210     1.3720     0.9240 h1         1 0TX       0.027950
     36 H141        -6.3070     2.4120    -0.4770 h1         1 0TX       0.027950
     37 H151        -7.9340     0.6040    -0.8670 hc         1 0TX       0.037200
     38 H153        -6.5980     0.5140    -2.0180 hc         1 0TX       0.037200
     39 H152        -6.6870    -0.6170    -0.6690 hc         1 0TX       0.037200
     40 H162        -4.2820     2.8850     1.0390 h1         1 0TX       0.027950
     41 H161        -2.8640     2.1540     0.3220 h1         1 0TX       0.027950
     42 H171        -3.3230     4.3150    -0.7350 hc         1 0TX       0.037200
     43 H172        -3.4600     3.0120    -1.9180 hc         1 0TX       0.037200
     44 H173        -4.9080     3.7810    -1.2680 hc         1 0TX       0.037200
     45 H182        -1.6700    -4.2960     1.5070 hc         1 0TX       0.045033
     46 H181         0.0560    -4.0640     1.2310 hc         1 0TX       0.045033
     47 H183        -0.7390    -3.2450     2.5790 hc         1 0TX       0.045033
     48 N2          -0.0870    -1.4140     0.6230 nu         1 0TX      -0.766600
@<TRIPOS>BOND
     1     1     9 1   
     2     2     3 ar  
     3     2    11 ar  
     4     3     4 ar  
     5     3    22 1   
     6     4     5 ar  
     7     4    23 1   
     8     5     6 ar  
     9     5    48 1   
    10     6     7 ar  
    11     6    11 ar  
    12     7     8 ar  
    13     7    24 1   
    14     8     9 ar  
    15     8    25 1   
    16     9    10 ar  
    17    10    11 ar  
    18    10    26 1   
    19    12    13 1   
    20    12    21 1   
    21    12    28 1   
    22    12    48 1   
    23    13    14 1   
    24    13    29 1   
    25    13    30 1   
    26    14    15 1   
    27    14    31 1   
    28    14    32 1   
    29    15    16 1   
    30    15    33 1   
    31    15    34 1   
    32    16    17 1   
    33    16    19 1   
    34    17    18 1   
    35    17    35 1   
    36    17    36 1   
    37    18    37 1   
    38    18    38 1   
    39    18    39 1   
    40    19    20 1   
    41    19    40 1   
    42    19    41 1   
    43    20    42 1   
    44    20    43 1   
    45    20    44 1   
    46    21    45 1   
    47    21    46 1   
    48    21    47 1   
    49    27    48 1   
@<TRIPOS>SUBSTRUCTURE
     1 0TX         1 TEMP              0 ****  ****    0 ROOT
