@<TRIPOS>MOLECULE
0TX
   48    49     1     0     0
SMALL
No Charge or Current Charge


@<TRIPOS>ATOM
      1 Cl           2.8900     3.7760     0.6660 cl         1 0TX      -0.202000
      2 N1           2.2080    -0.5050    -2.0430 nb         1 0TX      -0.705000
      3 C1           1.7400    -1.7590    -2.2010 ca         1 0TX       0.401900
      4 C2           1.0530    -2.4390    -1.1970 ca         1 0TX      -0.291000
      5 C3           0.8410    -1.8080     0.0250 ca         1 0TX       0.396000
      6 C4           1.3260    -0.4960     0.2130 ca         1 0TX      -0.140000
      7 C5           1.1310     0.2120     1.4240 ca         1 0TX      -0.077000
      8 C6           1.6130     1.5230     1.5600 ca         1 0TX      -0.122000
      9 C7           2.2890     2.1320     0.4960 ca         1 0TX       0.135000
     10 C8           2.4840     1.4370    -0.7050 ca         1 0TX      -0.089000
     11 C9           2.0070     0.1240    -0.8640 ca         1 0TX       0.312000
     12 C10         -1.1730    -3.1120     0.8580 c3         1 0TX       0.234500
     13 C11         -2.2990    -2.0930     1.1730 c3         1 0TX      -0.089400
     14 C12         -2.3980    -0.9120     0.1750 c3         1 0TX      -0.077400
     15 C13         -3.5680     0.0500     0.4890 c3         1 0TX       0.169800
     16 N3          -3.8030     1.1270    -0.5200 n3         1 0TX      -0.723600
     17 C14         -5.0680     1.8780    -0.2680 c3         1 0TX       0.168800
     18 C15         -6.3590     1.0300    -0.2980 c3         1 0TX      -0.089100
     19 C16         -2.6240     2.0300    -0.6840 c3         1 0TX       0.168800
     20 C17         -2.7240     3.0490    -1.8390 c3         1 0TX      -0.089100
     21 C18         -1.2440    -4.3460     1.7740 c3         1 0TX      -0.119100
     22 H11          1.9240    -2.2300    -3.1660 h4         1 0TX       0.013100
     23 H21          0.7040    -3.4510    -1.3730 ha         1 0TX       0.122000
     24 H51          0.6000    -0.2340     2.2620 ha         1 0TX       0.104000
     25 H61          1.4600     2.0670     2.4890 ha         1 0TX       0.128000
     26 H81          3.0060     1.9200    -1.5240 ha         1 0TX       0.147000
     27 HN21         0.3290    -2.1300     1.9580 hn         1 0TX       0.486000
     28 H101        -1.3010    -3.4660    -0.1750 h1         1 0TX       0.065700
     29 H112        -3.2580    -2.6260     1.1680 hc         1 0TX       0.044700
     30 H111        -2.1650    -1.7010     2.1880 hc         1 0TX       0.044700
     31 H121        -1.4590    -0.3530     0.2050 hc         1 0TX       0.053200
     32 H122        -2.5150    -1.3030    -0.8420 hc         1 0TX       0.053200
     33 H132        -4.4620    -0.5780     0.5750 h1         1 0TX       0.027700
     34 H131        -3.3970     0.4980     1.4770 h1         1 0TX       0.027700
     35 H142        -5.0120     2.3970     0.6980 h1         1 0TX       0.027950
     36 H141        -5.2010     2.6490    -1.0360 h1         1 0TX       0.027950
     37 H151        -7.2360     1.6870    -0.2850 hc         1 0TX       0.037200
     38 H153        -6.4010     0.4220    -1.2090 hc         1 0TX       0.037200
     39 H152        -6.4280     0.3700     0.5730 hc         1 0TX       0.037200
     40 H162        -2.4350     2.5750     0.2500 h1         1 0TX       0.027950
     41 H161        -1.7260     1.4370    -0.8940 h1         1 0TX       0.027950
     42 H171        -1.7530     3.5360    -1.9910 hc         1 0TX       0.037200
     43 H172        -3.0060     2.5510    -2.7730 hc         1 0TX       0.037200
     44 H173        -3.4560     3.8350    -1.6200 hc         1 0TX       0.037200
     45 H182        -2.2060    -4.8590     1.6530 hc         1 0TX       0.045033
     46 H181        -0.4490    -5.0590     1.5240 hc         1 0TX       0.045033
     47 H183        -1.1370    -4.0630     2.8280 hc         1 0TX       0.045033
     48 N2           0.1500    -2.4950     1.0240 nu         1 0TX      -0.960200
@<TRIPOS>BOND
     1     1     9 1   
     2     2     3 ar  
     3     2    11 ar  
     4     3     4 ar  
     5     3    22 1   
     6     4     5 ar  
     7     4    23 1   
     8     5     6 ar  
     9     5    48 1   
    10     6     7 ar  
    11     6    11 ar  
    12     7     8 ar  
    13     7    24 1   
    14     8     9 ar  
    15     8    25 1   
    16     9    10 ar  
    17    10    11 ar  
    18    10    26 1   
    19    12    13 1   
    20    12    21 1   
    21    12    28 1   
    22    12    48 1   
    23    13    14 1   
    24    13    29 1   
    25    13    30 1   
    26    14    15 1   
    27    14    31 1   
    28    14    32 1   
    29    15    16 1   
    30    15    33 1   
    31    15    34 1   
    32    16    17 1   
    33    16    19 1   
    34    17    18 1   
    35    17    35 1   
    36    17    36 1   
    37    18    37 1   
    38    18    38 1   
    39    18    39 1   
    40    19    20 1   
    41    19    40 1   
    42    19    41 1   
    43    20    42 1   
    44    20    43 1   
    45    20    44 1   
    46    21    45 1   
    47    21    46 1   
    48    21    47 1   
    49    27    48 1   
@<TRIPOS>SUBSTRUCTURE
     1 0TX         1 TEMP              0 ****  ****    0 ROOT
