@<TRIPOS>MOLECULE
0TZ
   36    39     1     0     0
SMALL
abcg2


@<TRIPOS>ATOM
      1 N8          -3.4250    -2.2540     0.0020 na         1 0TZ      -0.049200
      2 N9          -4.7630    -2.2890     0.0110 nc         1 0TZ      -0.530800
      3 C12         -5.1260    -1.0240     0.0130 cd         1 0TZ       0.253900
      4 C13         -4.0250    -0.1510     0.0050 cd         1 0TZ      -0.247000
      5 C11         -2.9310    -0.9990    -0.0030 cc         1 0TZ       0.250000
      6 N7          -1.5750    -0.7970    -0.0130 nu         1 0TZ      -0.808000
      7 C6          -0.9460     0.4030    -0.0100 cc         1 0TZ       0.414600
      8 N6          -1.5870     1.5730    -0.0110 nc         1 0TZ      -0.353600
      9 C5          -0.6340     2.5050    -0.0070 cd         1 0TZ      -0.017000
     10 C10         -0.7670     3.8980    -0.0070 cd         1 0TZ      -0.106000
     11 C9           0.3620     4.6740    -0.0020 cc         1 0TZ      -0.076000
     12 C8           1.6330     4.0690     0.0020 cc         1 0TZ      -0.169000
     13 C7           1.7500     2.7110     0.0010 cd         1 0TZ      -0.079000
     14 N5           0.6260     1.9460    -0.0040 na         1 0TZ       0.179100
     15 C4           0.4510     0.5660    -0.0050 cd         1 0TZ      -0.377900
     16 C3           1.4700    -0.4300     0.0010 ca         1 0TZ       0.335800
     17 N3           2.7480    -0.0760     0.0100 nb         1 0TZ      -0.332000
     18 N1           1.0390    -1.7060    -0.0000 nb         1 0TZ      -0.322000
     19 C1           1.9870    -2.6320     0.0080 ca         1 0TZ       0.223300
     20 C14          1.5640    -4.0640    -0.0160 c3         1 0TZ      -0.141400
     21 N2           3.2880    -2.3860     0.0190 nb         1 0TZ      -0.307000
     22 C2           3.6220    -1.0880     0.0190 ca         1 0TZ       0.429900
     23 N4           4.9180    -0.7830     0.0260 nv         1 0TZ      -1.065900
     24 H1          -2.9030    -3.1160    -0.0050 hn         1 0TZ       0.364000
     25 H2          -6.1730    -0.7600     0.0210 h4         1 0TZ       0.032100
     26 H3          -4.0210     0.9230     0.0040 ha         1 0TZ       0.168000
     27 H4          -0.9390    -1.5930    -0.0080 hn         1 0TZ       0.545000
     28 H5          -1.7600     4.3250    -0.0100 ha         1 0TZ       0.148000
     29 H6           0.2790     5.7520    -0.0010 ha         1 0TZ       0.126000
     30 H7           2.5310     4.6680     0.0070 ha         1 0TZ       0.133000
     31 H8           2.6890     2.1840     0.0050 h4         1 0TZ       0.176000
     32 H9           1.7960    -4.5000    -0.9900 hc         1 0TZ       0.062033
     33 H10          2.1110    -4.6370     0.7310 hc         1 0TZ       0.062033
     34 H11          0.4970    -4.1650     0.1620 hc         1 0TZ       0.062033
     35 H12          5.2180     0.1760     0.0430 hn         1 0TZ       0.508500
     36 H13          5.6120    -1.5090     0.0510 hn         1 0TZ       0.508500
@<TRIPOS>BOND
     1     1     2 1   
     2     1     5 1   
     3     1    24 1   
     4     2     3 2   
     5     3     4 1   
     6     3    25 1   
     7     4     5 2   
     8     4    26 1   
     9     5     6 1   
    10     6     7 1   
    11     6    27 1   
    12     7     8 1   
    13     7    15 2   
    14     8     9 2   
    15     9    10 1   
    16     9    14 1   
    17    10    11 2   
    18    10    28 1   
    19    11    12 1   
    20    11    29 1   
    21    12    13 2   
    22    12    30 1   
    23    13    14 1   
    24    13    31 1   
    25    14    15 1   
    26    15    16 1   
    27    16    17 ar  
    28    16    18 ar  
    29    17    22 ar  
    30    18    19 ar  
    31    19    20 1   
    32    19    21 ar  
    33    20    32 1   
    34    20    33 1   
    35    20    34 1   
    36    21    22 ar  
    37    22    23 1   
    38    23    35 1   
    39    23    36 1   
@<TRIPOS>SUBSTRUCTURE
     1 0TZ         1 TEMP              0 ****  ****    0 ROOT
