@<TRIPOS>MOLECULE
0TZ
   36    39     1     0     0
SMALL
No Charge or Current Charge


@<TRIPOS>ATOM
      1 N8          -3.4010    -2.2210    -0.9330 na         1 0TZ      -0.049200
      2 N9          -4.6480    -2.4160    -0.3450 nc         1 0TZ      -0.530800
      3 C12         -4.8170    -1.2950     0.3360 cd         1 0TZ       0.253900
      4 C13         -3.7310    -0.4070     0.1990 cd         1 0TZ      -0.247000
      5 C11         -2.8210    -0.9970    -0.6180 cc         1 0TZ       0.250000
      6 N7          -1.5900    -0.5650    -1.0540 nu         1 0TZ      -0.808000
      7 C6          -0.8950     0.5570    -0.7080 cc         1 0TZ       0.414600
      8 N6          -1.5380     1.7690    -0.7480 nc         1 0TZ      -0.353600
      9 C5          -0.6310     2.6380    -0.3420 cd         1 0TZ      -0.017000
     10 C10         -0.7830     4.0460    -0.1720 cd         1 0TZ      -0.106000
     11 C9           0.3230     4.7080     0.3170 cc         1 0TZ      -0.076000
     12 C8           1.5260     3.9830     0.6530 cc         1 0TZ      -0.169000
     13 C7           1.6620     2.6060     0.4920 cd         1 0TZ      -0.079000
     14 N5           0.5470     1.9830    -0.0830 na         1 0TZ       0.179100
     15 C4           0.3980     0.6260    -0.2560 cd         1 0TZ      -0.377900
     16 C3           1.3900    -0.4420    -0.1360 ca         1 0TZ       0.335800
     17 N3           2.6260    -0.2180    -0.6260 nb         1 0TZ      -0.332000
     18 N1           1.0020    -1.5810     0.4760 nb         1 0TZ      -0.322000
     19 C1           1.9530    -2.5320     0.5780 ca         1 0TZ       0.223300
     20 C14          1.5740    -3.8380     1.2490 c3         1 0TZ      -0.141400
     21 N2           3.2150    -2.4110     0.1180 nb         1 0TZ      -0.307000
     22 C2           3.4760    -1.2370    -0.4680 ca         1 0TZ       0.429900
     23 N4           4.7260    -1.0600    -0.9430 nv         1 0TZ      -1.065900
     24 H1          -2.9890    -2.9260    -1.5380 hn         1 0TZ       0.364000
     25 H2          -5.7220    -1.1560     0.9130 h4         1 0TZ       0.032100
     26 H3          -3.6410     0.5660     0.6650 ha         1 0TZ       0.168000
     27 H4          -0.9660    -1.3190    -1.3360 hn         1 0TZ       0.545000
     28 H5          -1.7110     4.5600    -0.4000 ha         1 0TZ       0.148000
     29 H6           0.2950     5.7820     0.4790 ha         1 0TZ       0.126000
     30 H7           2.3550     4.5510     1.0640 ha         1 0TZ       0.133000
     31 H8           2.5300     2.0150     0.7510 h4         1 0TZ       0.176000
     32 H9           1.3640    -4.6120     0.5020 hc         1 0TZ       0.062033
     33 H10          2.3830    -4.2020     1.8930 hc         1 0TZ       0.062033
     34 H11          0.6800    -3.7260     1.8750 hc         1 0TZ       0.062033
     35 H12          5.0190    -0.1140    -1.1730 hn         1 0TZ       0.508500
     36 H13          5.4550    -1.6980    -0.6320 hn         1 0TZ       0.508500
@<TRIPOS>BOND
     1     1     2 1   
     2     1     5 1   
     3     1    24 1   
     4     2     3 2   
     5     3     4 1   
     6     3    25 1   
     7     4     5 2   
     8     4    26 1   
     9     5     6 1   
    10     6     7 1   
    11     6    27 1   
    12     7     8 1   
    13     7    15 2   
    14     8     9 2   
    15     9    10 1   
    16     9    14 1   
    17    10    11 2   
    18    10    28 1   
    19    11    12 1   
    20    11    29 1   
    21    12    13 2   
    22    12    30 1   
    23    13    14 1   
    24    13    31 1   
    25    14    15 1   
    26    15    16 1   
    27    16    17 ar  
    28    16    18 ar  
    29    17    22 ar  
    30    18    19 ar  
    31    19    20 1   
    32    19    21 ar  
    33    20    32 1   
    34    20    33 1   
    35    20    34 1   
    36    21    22 ar  
    37    22    23 1   
    38    23    35 1   
    39    23    36 1   
@<TRIPOS>SUBSTRUCTURE
     1 0TZ         1 TEMP              0 ****  ****    0 ROOT
