@<TRIPOS>MOLECULE
0U0
   44    48     1     0     0
SMALL
No Charge or Current Charge


@<TRIPOS>ATOM
      1 C15          5.9200     0.9460    -0.7630 ca         1 0U0       0.234900
      2 N10          7.2090     0.5180    -0.8930 nb         1 0U0      -0.607000
      3 C16          7.3840    -0.8210    -0.7240 ca         1 0U0       0.236900
      4 C17          6.3040    -1.6980    -0.4370 ca         1 0U0       0.326900
      5 N11          5.0190    -1.2650    -0.3100 nb         1 0U0      -0.644000
      6 C14          4.8300     0.0630    -0.4660 ca         1 0U0       0.564900
      7 N7           3.5100     0.5170    -0.3570 nu         1 0U0      -0.904800
      8 C9           2.3040    -0.0280     0.0800 ca         1 0U0       0.388900
      9 C8           1.1210     0.6860    -0.1350 ca         1 0U0      -0.283000
     10 N5           2.2970    -1.2090     0.7220 nb         1 0U0      -0.209000
     11 C10          1.1000    -1.6710     1.1290 ca         1 0U0       0.190300
     12 C18          1.0810    -3.0120     1.8400 c3         1 0U0      -0.136400
     13 N6          -0.0890    -1.0600     0.9580 nb         1 0U0      -0.262000
     14 C7          -0.0860     0.1340     0.3270 ca         1 0U0       0.275800
     15 C5          -1.3600     0.8290     0.1320 cc         1 0U0      -0.320900
     16 N2          -1.6630     2.1570     0.2230 na         1 0U0       0.277900
     17 N1          -0.7330     3.1470     0.4770 nc         1 0U0      -0.473800
     18 C2          -1.2870     4.3680     0.5280 cd         1 0U0       0.293900
     19 C1          -2.6900     4.6770     0.3630 cd         1 0U0      -0.156000
     20 C4          -3.5660     3.6420     0.1450 cc         1 0U0      -0.037000
     21 C3          -3.0170     2.3360     0.0860 cc         1 0U0      -0.073000
     22 N3          -3.6140     1.1680    -0.0740 nd         1 0U0      -0.337600
     23 C6          -2.5920     0.2370    -0.0240 cd         1 0U0       0.393600
     24 N4          -2.8500    -1.0980    -0.1150 nu         1 0U0      -0.761900
     25 C11         -3.9570    -1.8410    -0.3690 cc         1 0U0       0.510900
     26 C13         -5.1760    -1.3590    -0.8550 cc         1 0U0      -0.231000
     27 C12         -5.9930    -2.4420    -0.9880 cd         1 0U0      -0.163000
     28 N9          -5.2040    -3.5270    -0.5750 na         1 0U0      -0.005200
     29 N8          -3.9150    -3.1350    -0.1930 nd         1 0U0      -0.581800
     30 H1           5.7510     2.0140    -0.8970 h4         1 0U0       0.024100
     31 H2           8.4000    -1.2010    -0.8200 h4         1 0U0       0.033100
     32 H3           6.4750    -2.7660    -0.3100 h4         1 0U0       0.031100
     33 H4           3.4130     1.4830    -0.6630 hn         1 0U0       0.503000
     34 H5           1.1320     1.6350    -0.6580 ha         1 0U0       0.148000
     35 H6           0.3490    -3.0200     2.6560 hc         1 0U0       0.061033
     36 H7           0.8170    -3.8170     1.1440 hc         1 0U0       0.061033
     37 H8           2.0590    -3.2530     2.2740 hc         1 0U0       0.061033
     38 H9          -0.5670     5.1540     0.7140 h4         1 0U0       0.038100
     39 H10         -3.0380     5.7020     0.4230 ha         1 0U0       0.137000
     40 H11         -4.6350     3.7980     0.0310 ha         1 0U0       0.151000
     41 H12         -2.0550    -1.6820     0.1200 hn         1 0U0       0.555000
     42 H13         -5.4140    -0.3300    -1.0910 ha         1 0U0       0.168000
     43 H14         -7.0190    -2.5370    -1.3310 h4         1 0U0       0.151000
     44 H15         -5.4950    -4.5050    -0.5470 hn         1 0U0       0.371000
@<TRIPOS>BOND
     1     1     2 ar  
     2     1     6 ar  
     3     1    30 1   
     4     2     3 ar  
     5     3     4 ar  
     6     3    31 1   
     7     4     5 ar  
     8     4    32 1   
     9     5     6 ar  
    10     6     7 1   
    11     7     8 1   
    12     7    33 1   
    13     8     9 ar  
    14     8    10 ar  
    15     9    14 ar  
    16     9    34 1   
    17    10    11 ar  
    18    11    12 1   
    19    11    13 ar  
    20    12    35 1   
    21    12    36 1   
    22    12    37 1   
    23    13    14 ar  
    24    14    15 1   
    25    15    16 1   
    26    15    23 2   
    27    16    17 1   
    28    16    21 1   
    29    17    18 2   
    30    18    19 1   
    31    18    38 1   
    32    19    20 2   
    33    19    39 1   
    34    20    21 1   
    35    20    40 1   
    36    21    22 2   
    37    22    23 1   
    38    23    24 1   
    39    24    25 1   
    40    24    41 1   
    41    25    26 1   
    42    25    29 2   
    43    26    27 2   
    44    26    42 1   
    45    27    28 1   
    46    27    43 1   
    47    28    29 1   
    48    28    44 1   
@<TRIPOS>SUBSTRUCTURE
     1 0U0         1 TEMP              0 ****  ****    0 ROOT
