@<TRIPOS>MOLECULE
0U0
   44    48     1     0     0
SMALL
abcg2


@<TRIPOS>ATOM
      1 C15          5.8750     1.0910    -0.1110 ca         1 0U0       0.234900
      2 N10          7.1390     0.7400    -0.0990 nb         1 0U0      -0.607000
      3 C16          7.4180    -0.5550     0.0540 ca         1 0U0       0.236900
      4 C17          6.4020    -1.4800     0.1950 ca         1 0U0       0.326900
      5 N11          5.1170    -1.1380     0.1870 nb         1 0U0      -0.644000
      6 C14          4.8420     0.1430     0.0310 ca         1 0U0       0.564900
      7 N7           3.5490     0.6180     0.0080 nu         1 0U0      -0.904800
      8 C9           2.3400    -0.0250     0.0370 ca         1 0U0       0.388900
      9 C8           1.1920     0.7750    -0.0020 ca         1 0U0      -0.283000
     10 N5           2.2820    -1.3470     0.0910 nb         1 0U0      -0.209000
     11 C10          1.0670    -1.8900     0.1110 ca         1 0U0       0.190300
     12 C18          1.0060    -3.3820     0.2000 c3         1 0U0      -0.136400
     13 N6          -0.0750    -1.2330     0.0770 nb         1 0U0      -0.262000
     14 C7          -0.0280     0.1170     0.0180 ca         1 0U0       0.275800
     15 C5          -1.3150     0.7570    -0.0210 cc         1 0U0      -0.320900
     16 N2          -1.5740     2.1070    -0.0920 na         1 0U0       0.277900
     17 N1          -0.6840     3.0820    -0.1360 nc         1 0U0      -0.473800
     18 C2          -1.1630     4.2950    -0.2040 cd         1 0U0       0.293900
     19 C1          -2.5370     4.6010    -0.2290 cd         1 0U0      -0.156000
     20 C4          -3.4400     3.5750    -0.1810 cc         1 0U0      -0.037000
     21 C3          -2.9420     2.2710    -0.1100 cc         1 0U0      -0.073000
     22 N3          -3.5670     1.1040    -0.0540 nd         1 0U0      -0.337600
     23 C6          -2.6010     0.1770    -0.0000 cd         1 0U0       0.393600
     24 N4          -2.8430    -1.1490     0.0670 nu         1 0U0      -0.761900
     25 C11         -4.0710    -1.7780     0.0880 cc         1 0U0       0.510900
     26 C13         -5.3780    -1.2470     0.0420 cc         1 0U0      -0.231000
     27 C12         -6.1860    -2.3610     0.0930 cd         1 0U0      -0.163000
     28 N9          -5.3780    -3.4240     0.1620 na         1 0U0      -0.005200
     29 N8          -4.0850    -3.0990     0.1610 nd         1 0U0      -0.581800
     30 H1           5.6460     2.1450    -0.2350 h4         1 0U0       0.024100
     31 H2           8.4580    -0.8530     0.0630 h4         1 0U0       0.033100
     32 H3           6.6260    -2.5320     0.3220 h4         1 0U0       0.031100
     33 H4           3.4810     1.6220    -0.0650 hn         1 0U0       0.503000
     34 H5           1.2600     1.8500    -0.0480 ha         1 0U0       0.148000
     35 H6           1.2620    -3.7060     1.2100 hc         1 0U0       0.061033
     36 H7           0.0100    -3.7520    -0.0330 hc         1 0U0       0.061033
     37 H8           1.7270    -3.8380    -0.4770 hc         1 0U0       0.061033
     38 H9          -0.4180     5.0770    -0.2400 h4         1 0U0       0.038100
     39 H10         -2.8540     5.6320    -0.2850 ha         1 0U0       0.137000
     40 H11         -4.5090     3.7360    -0.1980 ha         1 0U0       0.151000
     41 H12         -2.0070    -1.7250     0.1050 hn         1 0U0       0.555000
     42 H13         -5.6770    -0.2170    -0.0200 ha         1 0U0       0.168000
     43 H14         -7.2590    -2.4570     0.0850 h4         1 0U0       0.151000
     44 H15         -5.6470    -4.3930     0.2150 hn         1 0U0       0.371000
@<TRIPOS>BOND
     1     1     2 ar  
     2     1     6 ar  
     3     1    30 1   
     4     2     3 ar  
     5     3     4 ar  
     6     3    31 1   
     7     4     5 ar  
     8     4    32 1   
     9     5     6 ar  
    10     6     7 1   
    11     7     8 1   
    12     7    33 1   
    13     8     9 ar  
    14     8    10 ar  
    15     9    14 ar  
    16     9    34 1   
    17    10    11 ar  
    18    11    12 1   
    19    11    13 ar  
    20    12    35 1   
    21    12    36 1   
    22    12    37 1   
    23    13    14 ar  
    24    14    15 1   
    25    15    16 1   
    26    15    23 2   
    27    16    17 1   
    28    16    21 1   
    29    17    18 2   
    30    18    19 1   
    31    18    38 1   
    32    19    20 2   
    33    19    39 1   
    34    20    21 1   
    35    20    40 1   
    36    21    22 2   
    37    22    23 1   
    38    23    24 1   
    39    24    25 1   
    40    24    41 1   
    41    25    26 1   
    42    25    29 2   
    43    26    27 2   
    44    26    42 1   
    45    27    28 1   
    46    27    43 1   
    47    28    29 1   
    48    28    44 1   
@<TRIPOS>SUBSTRUCTURE
     1 0U0         1 TEMP              0 ****  ****    0 ROOT
