@<TRIPOS>MOLECULE
0U3
   72    73     1     0     0
SMALL
No Charge or Current Charge


@<TRIPOS>ATOM
      1 C1          -3.1680    -0.3300     0.4900 ca         1 0U3      -0.198000
      2 C2          -4.3070     0.2530    -0.0990 ca         1 0U3       0.128100
      3 C3          -4.2620     1.6020    -0.5040 ca         1 0U3      -0.096300
      4 C4          -3.0800     2.3490    -0.3280 ca         1 0U3      -0.079000
      5 C5          -1.9160     1.7690     0.2340 ca         1 0U3      -0.092300
      6 C6          -1.9950     0.4220     0.6600 ca         1 0U3      -0.073000
      7 C7          -0.6070     2.5880     0.4600 c3         1 0U3       0.066600
      8 C8           0.6620     1.7010     0.2600 ca         1 0U3      -0.100300
      9 C9          -0.4590     3.8010    -0.5270 c3         1 0U3      -0.066900
     10 C10         -0.7100     3.2000     1.9030 c3         1 0U3      -0.066900
     11 C11         -0.7860     2.1990     3.0820 c3         1 0U3      -0.089600
     12 C12         -0.4230     3.4710    -2.0390 c3         1 0U3      -0.089600
     13 C13          0.6870     0.7160    -0.7560 ca         1 0U3      -0.074000
     14 C14          1.8220    -0.0860    -0.9810 ca         1 0U3      -0.106300
     15 C15          2.9750     0.1000    -0.1930 ca         1 0U3       0.139100
     16 C16          1.7960    -1.1430    -2.0810 c3         1 0U3      -0.034800
     17 C17          2.9780     1.0950     0.8040 ca         1 0U3      -0.203000
     18 C18          1.8400     1.8900     1.0210 ca         1 0U3      -0.076000
     19 O19         -5.4800    -0.4550    -0.2840 os         1 0U3      -0.315100
     20 O22         -8.3740    -4.4780    -0.2970 oh         1 0U3      -0.423100
     21 C20         -5.6190    -1.8420     0.1030 c3         1 0U3       0.076600
     22 C21         -7.0260    -2.4030    -0.2140 c          1 0U3       0.602100
     23 N23         -7.2150    -3.7340     0.1560 ns         1 0U3      -0.389400
     24 O24         -7.9180    -1.7420    -0.7380 o          1 0U3      -0.532100
     25 C25          7.7370    -1.6010     0.4390 c3         1 0U3      -0.076000
     26 C26          7.6350    -1.7970     1.9780 c3         1 0U3      -0.086100
     27 C27          8.4630    -0.2540     0.1550 c3         1 0U3      -0.086100
     28 C28          8.6030    -2.7620    -0.1310 c3         1 0U3      -0.086100
     29 C29          5.2950    -0.5850     0.3280 c3         1 0U3       0.129600
     30 O30          4.0770    -0.7000    -0.4350 os         1 0U3      -0.334100
     31 C31          6.3010    -1.6450    -0.2090 c3         1 0U3       0.173300
     32 O32          6.3850    -1.5160    -1.6410 oh         1 0U3      -0.641000
     33 C33         -5.4880     2.2630    -1.1270 c3         1 0U3      -0.036800
     34 H1          -3.1720    -1.3620     0.8270 ha         1 0U3       0.111000
     35 H2          -3.0850     3.3900    -0.6330 ha         1 0U3       0.116000
     36 H3          -1.1400    -0.0530     1.1350 ha         1 0U3       0.120000
     37 H4          -1.2540     4.5330    -0.3460 hc         1 0U3       0.038200
     38 H5           0.4710     4.3320    -0.2870 hc         1 0U3       0.038200
     39 H6           0.1230     3.8890     2.0800 hc         1 0U3       0.038200
     40 H7          -1.6090     3.8270     1.9510 hc         1 0U3       0.038200
     41 H8          -1.7340     1.6510     3.0750 hc         1 0U3       0.035533
     42 H9           0.0350     1.4740     3.0530 hc         1 0U3       0.035533
     43 H10         -0.7260     2.7380     4.0350 hc         1 0U3       0.035533
     44 H11         -1.2790     2.8570    -2.3420 hc         1 0U3       0.035533
     45 H12         -0.4490     4.3970    -2.6250 hc         1 0U3       0.035533
     46 H13          0.4970     2.9390    -2.3060 hc         1 0U3       0.035533
     47 H14         -0.1870     0.5720    -1.3880 ha         1 0U3       0.120000
     48 H15          2.5490    -0.9280    -2.8480 hc         1 0U3       0.043700
     49 H16          2.0070    -2.1390    -1.6730 hc         1 0U3       0.043700
     50 H17          0.8210    -1.1920    -2.5800 hc         1 0U3       0.043700
     51 H18          3.8550     1.2740     1.4190 ha         1 0U3       0.113000
     52 H19          1.8980     2.6560     1.7880 ha         1 0U3       0.110000
     53 H20         -8.7260    -4.8890     0.5290 ho         1 0U3       0.449000
     54 H21         -4.8890    -2.4650    -0.4280 h1         1 0U3       0.049700
     55 H22         -5.4520    -1.9610     1.1800 h1         1 0U3       0.049700
     56 H23         -6.4140    -4.2890     0.4560 hn         1 0U3       0.331500
     57 H24          7.0920    -2.7180     2.2220 hc         1 0U3       0.036700
     58 H25          8.6320    -1.8650     2.4310 hc         1 0U3       0.036700
     59 H26          7.1170    -0.9580     2.4580 hc         1 0U3       0.036700
     60 H27          7.9290     0.5940     0.6000 hc         1 0U3       0.036700
     61 H28          9.4750    -0.2610     0.5790 hc         1 0U3       0.036700
     62 H29          8.5570    -0.0700    -0.9220 hc         1 0U3       0.036700
     63 H30          8.7670    -2.6480    -1.2100 hc         1 0U3       0.036700
     64 H31          9.5880    -2.7910     0.3500 hc         1 0U3       0.036700
     65 H32          8.1180    -3.7320     0.0370 hc         1 0U3       0.036700
     66 H33          5.7170     0.4220     0.2200 h1         1 0U3       0.036700
     67 H34          5.0960    -0.7700     1.3900 h1         1 0U3       0.036700
     68 H35          5.8670    -2.6250     0.0350 h1         1 0U3       0.085700
     69 H36          5.4790    -1.2740    -1.9330 ho         1 0U3       0.437000
     70 H37         -6.3350     2.2510    -0.4310 hc         1 0U3       0.045700
     71 H38         -5.2990     3.3080    -1.3990 hc         1 0U3       0.045700
     72 H39         -5.7960     1.7370    -2.0390 hc         1 0U3       0.045700
@<TRIPOS>BOND
     1     1     2 ar  
     2     1     6 ar  
     3     1    34 1   
     4     2     3 ar  
     5     2    19 1   
     6     3     4 ar  
     7     3    33 1   
     8     4     5 ar  
     9     4    35 1   
    10     5     6 ar  
    11     5     7 1   
    12     6    36 1   
    13     7     8 1   
    14     7     9 1   
    15     7    10 1   
    16     8    13 ar  
    17     8    18 ar  
    18     9    12 1   
    19     9    37 1   
    20     9    38 1   
    21    10    11 1   
    22    10    39 1   
    23    10    40 1   
    24    11    41 1   
    25    11    42 1   
    26    11    43 1   
    27    12    44 1   
    28    12    45 1   
    29    12    46 1   
    30    13    14 ar  
    31    13    47 1   
    32    14    15 ar  
    33    14    16 1   
    34    15    17 ar  
    35    15    30 1   
    36    16    48 1   
    37    16    49 1   
    38    16    50 1   
    39    17    18 ar  
    40    17    51 1   
    41    18    52 1   
    42    19    21 1   
    43    20    23 1   
    44    20    53 1   
    45    21    22 1   
    46    21    54 1   
    47    21    55 1   
    48    22    23 1   
    49    22    24 2   
    50    23    56 1   
    51    25    26 1   
    52    25    27 1   
    53    25    28 1   
    54    25    31 1   
    55    26    57 1   
    56    26    58 1   
    57    26    59 1   
    58    27    60 1   
    59    27    61 1   
    60    27    62 1   
    61    28    63 1   
    62    28    64 1   
    63    28    65 1   
    64    29    30 1   
    65    29    31 1   
    66    29    66 1   
    67    29    67 1   
    68    31    32 1   
    69    31    68 1   
    70    32    69 1   
    71    33    70 1   
    72    33    71 1   
    73    33    72 1   
@<TRIPOS>SUBSTRUCTURE
     1 0U3         1 TEMP              0 ****  ****    0 ROOT
