@<TRIPOS>MOLECULE
0U3
   72    73     1     0     0
SMALL
abcg2


@<TRIPOS>ATOM
      1 C1          -3.1340    -0.4800     0.4770 ca         1 0U3      -0.198000
      2 C2          -4.2620     0.1090    -0.0790 ca         1 0U3       0.128100
      3 C3          -4.2130     1.4380    -0.5160 ca         1 0U3      -0.096300
      4 C4          -3.0210     2.1350    -0.3710 ca         1 0U3      -0.079000
      5 C5          -1.8680     1.5720     0.1800 ca         1 0U3      -0.092300
      6 C6          -1.9580     0.2510     0.6010 ca         1 0U3      -0.073000
      7 C7          -0.6050     2.3940     0.4260 c3         1 0U3       0.066600
      8 C8           0.6590     1.5650     0.2120 ca         1 0U3      -0.100300
      9 C9          -0.5060     3.6300    -0.5020 c3         1 0U3      -0.066900
     10 C10         -0.7040     2.9650     1.8650 c3         1 0U3      -0.066900
     11 C11         -0.7480     1.9660     3.0120 c3         1 0U3      -0.089600
     12 C12         -0.4060     3.3680    -1.9970 c3         1 0U3      -0.089600
     13 C13          0.7330     0.6150    -0.8120 ca         1 0U3      -0.074000
     14 C14          1.8810    -0.1070    -1.0990 ca         1 0U3      -0.106300
     15 C15          3.0270     0.1270    -0.3250 ca         1 0U3       0.139100
     16 C16          1.9050    -1.1210    -2.2040 c3         1 0U3      -0.034800
     17 C17          2.9910     1.0790     0.6860 ca         1 0U3      -0.203000
     18 C18          1.8190     1.7850     0.9410 ca         1 0U3      -0.076000
     19 O19         -5.4490    -0.5210    -0.2390 os         1 0U3      -0.315100
     20 O22         -8.5110    -3.9900     0.3240 oh         1 0U3      -0.423100
     21 C20         -5.5500    -1.8590     0.1600 c3         1 0U3       0.076600
     22 C21         -6.9500    -2.3280    -0.1980 c          1 0U3       0.602100
     23 N23         -7.4040    -3.2670     0.6510 ns         1 0U3      -0.389400
     24 O24         -7.5720    -1.8970    -1.1470 o          1 0U3      -0.532100
     25 C25          7.6000    -1.5030     0.4510 c3         1 0U3      -0.076000
     26 C26          7.2270    -2.0690     1.8250 c3         1 0U3      -0.086100
     27 C27          8.2700    -0.1390     0.6380 c3         1 0U3      -0.086100
     28 C28          8.5890    -2.4660    -0.2110 c3         1 0U3      -0.086100
     29 C29          5.2950    -0.4360     0.1130 c3         1 0U3       0.129600
     30 O30          4.1090    -0.6170    -0.6340 os         1 0U3      -0.334100
     31 C31          6.3360    -1.4020    -0.4350 c3         1 0U3       0.173300
     32 O32          6.6300    -1.0970    -1.7800 oh         1 0U3      -0.641000
     33 C33         -5.4190     2.0830    -1.1330 c3         1 0U3      -0.036800
     34 H1          -3.1450    -1.5030     0.8270 ha         1 0U3       0.111000
     35 H2          -3.0100     3.1630    -0.7120 ha         1 0U3       0.116000
     36 H3          -1.0990    -0.2390     1.0390 ha         1 0U3       0.120000
     37 H4          -1.3540     4.2930    -0.3050 hc         1 0U3       0.038200
     38 H5           0.3760     4.1930    -0.1840 hc         1 0U3       0.038200
     39 H6           0.1260     3.6600     2.0220 hc         1 0U3       0.038200
     40 H7          -1.6040     3.5850     1.8990 hc         1 0U3       0.038200
     41 H8          -1.6550     1.3620     2.9940 hc         1 0U3       0.035533
     42 H9           0.1040     1.2860     2.9980 hc         1 0U3       0.035533
     43 H10         -0.7290     2.4950     3.9660 hc         1 0U3       0.035533
     44 H11         -1.2320     2.7600    -2.3690 hc         1 0U3       0.035533
     45 H12         -0.4260     4.3120    -2.5430 hc         1 0U3       0.035533
     46 H13          0.5230     2.8610    -2.2600 hc         1 0U3       0.035533
     47 H14         -0.1420     0.4240    -1.4220 ha         1 0U3       0.120000
     48 H15          2.6810    -0.9020    -2.9400 hc         1 0U3       0.043700
     49 H16          2.1030    -2.1260    -1.8260 hc         1 0U3       0.043700
     50 H17          0.9490    -1.1450    -2.7260 hc         1 0U3       0.043700
     51 H18          3.8610     1.2880     1.2950 ha         1 0U3       0.113000
     52 H19          1.8440     2.5200     1.7340 ha         1 0U3       0.110000
     53 H20         -9.2360    -3.6130     0.8400 ho         1 0U3       0.449000
     54 H21         -4.8330    -2.4970    -0.3740 h1         1 0U3       0.049700
     55 H22         -5.3550    -1.9790     1.2320 h1         1 0U3       0.049700
     56 H23         -6.8060    -3.7020     1.3400 hn         1 0U3       0.331500
     57 H24          6.6710    -3.0060     1.7370 hc         1 0U3       0.036700
     58 H25          8.1310    -2.2800     2.4000 hc         1 0U3       0.036700
     59 H26          6.6260    -1.3780     2.4170 hc         1 0U3       0.036700
     60 H27          7.6250     0.5700     1.1610 hc         1 0U3       0.036700
     61 H28          9.1800    -0.2440     1.2320 hc         1 0U3       0.036700
     62 H29          8.5690     0.3160    -0.3100 hc         1 0U3       0.036700
     63 H30          8.9390    -2.0990    -1.1750 hc         1 0U3       0.036700
     64 H31          9.4640    -2.6040     0.4270 hc         1 0U3       0.036700
     65 H32          8.1380    -3.4480    -0.3700 hc         1 0U3       0.036700
     66 H33          5.6470     0.6000     0.0220 h1         1 0U3       0.036700
     67 H34          5.1070    -0.6280     1.1740 h1         1 0U3       0.036700
     68 H35          5.8830    -2.4000    -0.4610 h1         1 0U3       0.085700
     69 H36          7.0700    -0.2410    -1.8150 ho         1 0U3       0.437000
     70 H37         -6.2630     2.1160    -0.4420 hc         1 0U3       0.045700
     71 H38         -5.1960     3.1050    -1.4350 hc         1 0U3       0.045700
     72 H39         -5.7560     1.5420    -2.0190 hc         1 0U3       0.045700
@<TRIPOS>BOND
     1     1     2 ar  
     2     1     6 ar  
     3     1    34 1   
     4     2     3 ar  
     5     2    19 1   
     6     3     4 ar  
     7     3    33 1   
     8     4     5 ar  
     9     4    35 1   
    10     5     6 ar  
    11     5     7 1   
    12     6    36 1   
    13     7     8 1   
    14     7     9 1   
    15     7    10 1   
    16     8    13 ar  
    17     8    18 ar  
    18     9    12 1   
    19     9    37 1   
    20     9    38 1   
    21    10    11 1   
    22    10    39 1   
    23    10    40 1   
    24    11    41 1   
    25    11    42 1   
    26    11    43 1   
    27    12    44 1   
    28    12    45 1   
    29    12    46 1   
    30    13    14 ar  
    31    13    47 1   
    32    14    15 ar  
    33    14    16 1   
    34    15    17 ar  
    35    15    30 1   
    36    16    48 1   
    37    16    49 1   
    38    16    50 1   
    39    17    18 ar  
    40    17    51 1   
    41    18    52 1   
    42    19    21 1   
    43    20    23 1   
    44    20    53 1   
    45    21    22 1   
    46    21    54 1   
    47    21    55 1   
    48    22    23 1   
    49    22    24 2   
    50    23    56 1   
    51    25    26 1   
    52    25    27 1   
    53    25    28 1   
    54    25    31 1   
    55    26    57 1   
    56    26    58 1   
    57    26    59 1   
    58    27    60 1   
    59    27    61 1   
    60    27    62 1   
    61    28    63 1   
    62    28    64 1   
    63    28    65 1   
    64    29    30 1   
    65    29    31 1   
    66    29    66 1   
    67    29    67 1   
    68    31    32 1   
    69    31    68 1   
    70    32    69 1   
    71    33    70 1   
    72    33    71 1   
    73    33    72 1   
@<TRIPOS>SUBSTRUCTURE
     1 0U3         1 TEMP              0 ****  ****    0 ROOT
