@<TRIPOS>MOLECULE
0U4
  106   110     1     0     0
SMALL
abcg2


@<TRIPOS>ATOM
      1 CAV          5.3200     5.5470     2.3490 ca         1 0U4      -0.101500
      2 CAP          4.3980     6.5620     2.5730 ca         1 0U4      -0.109000
      3 CAK          3.1430     6.2630     3.0840 ca         1 0U4      -0.102000
      4 CAQ          2.8160     4.9440     3.3730 ca         1 0U4      -0.109000
      5 CAW          3.7430     3.9350     3.1560 ca         1 0U4      -0.101500
      6 CBS          5.0050     4.2240     2.6390 ca         1 0U4      -0.106300
      7 CBU          6.0270     3.1330     2.4290 c3         1 0U4       0.165000
      8 CAA          6.5100     2.5690     3.7640 c3         1 0U4      -0.098100
      9 NBK          5.4540     2.0950     1.5790 ns         1 0U4      -0.498900
     10 CBM          6.2120     1.1980     0.9270 c          1 0U4       0.614700
     11 OAD          7.4300     1.1570     1.0200 o          1 0U4      -0.602100
     12 CBQ          5.4730     0.2330     0.0530 ca         1 0U4      -0.144600
     13 CAX          4.1800    -0.1960     0.3410 ca         1 0U4      -0.063000
     14 CAY          6.1430    -0.2880    -1.0450 ca         1 0U4      -0.022000
     15 CBT          5.5180    -1.2080    -1.8770 ca         1 0U4       0.248000
     16 NBY          6.2300    -1.7420    -2.9800 nh         1 0U4      -0.775300
     17 CAB          6.1110    -3.1720    -3.2510 c3         1 0U4       0.197100
     18 SCA          6.4630    -0.7540    -4.3100 s6         1 0U4       1.198100
     19 CAC          8.2190    -0.8280    -4.5460 c3         1 0U4      -0.347100
     20 OAG          5.8230    -1.3530    -5.4730 o          1 0U4      -0.533000
     21 OAF          6.0920     0.5960    -3.9180 o          1 0U4      -0.533000
     22 CAZ          4.2330    -1.6410    -1.5830 ca         1 0U4      -0.058000
     23 CBR          3.5630    -1.1360    -0.4750 ca         1 0U4      -0.145600
     24 CBN          2.2140    -1.6950    -0.1490 c          1 0U4       0.619700
     25 OAE          1.9720    -2.8770    -0.3420 o          1 0U4      -0.608100
     26 NBL          1.3300    -0.8220     0.3600 ns         1 0U4      -0.488900
     27 CBX          0.0780    -1.2190     0.9710 c3         1 0U4       0.116700
     28 CBH          0.0360    -0.7660     2.4410 c3         1 0U4      -0.048100
     29 CBO          1.3520    -0.9650     3.1410 ca         1 0U4      -0.081300
     30 CAR          1.9050    -2.2360     3.2920 ca         1 0U4      -0.112500
     31 CAL          3.1450    -2.4050     3.8900 ca         1 0U4      -0.109500
     32 CAI          3.8530    -1.3050     4.3610 ca         1 0U4      -0.107000
     33 CAM          3.3060    -0.0370     4.2290 ca         1 0U4      -0.109500
     34 CAS          2.0680     0.1290     3.6180 ca         1 0U4      -0.112500
     35 CBV         -1.1040    -0.7140     0.1480 c3         1 0U4       0.157300
     36 OAH         -1.1060     0.6930     0.1370 oh         1 0U4      -0.670000
     37 CBE         -2.4440    -1.2370     0.6530 c3         1 0U4       0.114800
     38 NBJ         -3.5000    -0.5990    -0.1110 n7         1 0U4      -0.882400
     39 CBA         -4.8350    -0.9100     0.3710 c3         1 0U4       0.162800
     40 CBB         -5.8920    -0.1970    -0.4570 c3         1 0U4      -0.076400
     41 CBW         -7.3290    -0.4980    -0.0370 c6         1 0U4      -0.059700
     42 CBD         -7.7220    -1.9560    -0.2640 c6         1 0U4      -0.073400
     43 CBG         -9.1870    -2.2010     0.0650 c6         1 0U4       0.168800
     44 CBC         -8.3120     0.3960    -0.7890 c6         1 0U4      -0.073400
     45 CBF         -9.7550     0.0680    -0.4410 c6         1 0U4       0.168800
     46 NBZ        -10.0540    -1.3280    -0.7030 n3         1 0U4      -0.720600
     47 CBI        -11.4510    -1.6330    -0.4830 c3         1 0U4       0.215100
     48 CBP        -12.3560    -0.9730    -1.4930 ca         1 0U4      -0.088300
     49 CAT        -13.5280    -0.3410    -1.0930 ca         1 0U4      -0.098500
     50 CAN        -14.3830     0.2330    -2.0280 ca         1 0U4      -0.114500
     51 CAJ        -14.0690     0.1860    -3.3780 ca         1 0U4      -0.109000
     52 CAO        -12.8950    -0.4370    -3.7870 ca         1 0U4      -0.114500
     53 CAU        -12.0460    -1.0110    -2.8510 ca         1 0U4      -0.098500
     54 H1           6.2960     5.7900     1.9460 ha         1 0U4       0.114000
     55 H2           4.6620     7.5860     2.3450 ha         1 0U4       0.115000
     56 H3           2.4230     7.0530     3.2560 ha         1 0U4       0.115000
     57 H4           1.8410     4.6990     3.7730 ha         1 0U4       0.115000
     58 H5           3.4720     2.9140     3.3990 ha         1 0U4       0.114000
     59 H6           6.8870     3.5640     1.9090 h1         1 0U4       0.067700
     60 H7           5.6840     2.1380     4.3310 hc         1 0U4       0.045700
     61 H8           7.2620     1.7960     3.6140 hc         1 0U4       0.045700
     62 H9           6.9540     3.3630     4.3640 hc         1 0U4       0.045700
     63 H10          4.4940     2.2070     1.2930 hn         1 0U4       0.320500
     64 H11          3.6810     0.1390     1.2430 ha         1 0U4       0.128000
     65 H12          7.1630     0.0120    -1.2440 ha         1 0U4       0.142000
     66 H13          5.1530    -3.4520    -3.6910 h1         1 0U4       0.052367
     67 H14          6.9060    -3.4960    -3.9200 h1         1 0U4       0.052367
     68 H15          6.2400    -3.7040    -2.3120 h1         1 0U4       0.052367
     69 H16          8.7150    -0.4420    -3.6600 h1         1 0U4       0.104700
     70 H17          8.5230    -1.8560    -4.7300 h1         1 0U4       0.104700
     71 H18          8.4630    -0.2150    -5.4130 h1         1 0U4       0.104700
     72 H19          3.7470    -2.3740    -2.2140 ha         1 0U4       0.139000
     73 H20          1.5780     0.1550     0.3970 hn         1 0U4       0.327500
     74 H21          0.0490    -2.3090     0.9330 h1         1 0U4       0.081700
     75 H22         -0.2460     0.2870     2.4940 hc         1 0U4       0.059700
     76 H23         -0.7480    -1.3280     2.9530 hc         1 0U4       0.059700
     77 H24          1.3660    -3.1050     2.9320 ha         1 0U4       0.112500
     78 H25          3.5600    -3.3990     3.9940 ha         1 0U4       0.114500
     79 H26          4.8180    -1.4370     4.8310 ha         1 0U4       0.116000
     80 H27          3.8380     0.8250     4.6090 ha         1 0U4       0.114500
     81 H28          1.6470     1.1230     3.5130 ha         1 0U4       0.112500
     82 H29         -0.9610    -1.1010    -0.8750 h1         1 0U4       0.044700
     83 H30         -2.0220     0.9410    -0.0600 ho         1 0U4       0.473000
     84 H31         -2.4620    -2.3350     0.5940 h1         1 0U4       0.044200
     85 H32         -2.5850    -0.9710     1.7040 h1         1 0U4       0.044200
     86 H33         -3.4300    -0.8990    -1.0780 hn         1 0U4       0.412000
     87 H35         -5.0180    -1.9950     0.3730 h1         1 0U4       0.032200
     88 H36         -4.9080    -0.5860     1.4130 h1         1 0U4       0.032200
     89 H37         -5.7160     0.8820    -0.3910 hc         1 0U4       0.048200
     90 H38         -5.7710    -0.4650    -1.5140 hc         1 0U4       0.048200
     91 H39         -7.4300    -0.2800     1.0360 hc         1 0U4       0.044700
     92 H40         -7.5380    -2.2210    -1.3110 hc         1 0U4       0.046450
     93 H41         -7.1140    -2.6280     0.3440 hc         1 0U4       0.046450
     94 H42         -9.4440    -3.2380    -0.1660 h1         1 0U4       0.032450
     95 H43         -9.3410    -2.0730     1.1520 h1         1 0U4       0.032450
     96 H44         -8.1190     1.4480    -0.5630 hc         1 0U4       0.046450
     97 H45         -8.1670     0.2690    -1.8680 hc         1 0U4       0.046450
     98 H46         -9.9440     0.3240     0.6180 h1         1 0U4       0.032450
     99 H47        -10.4240     0.6920    -1.0370 h1         1 0U4       0.032450
    100 H49        -11.5740    -2.7180    -0.5640 h1         1 0U4       0.036700
    101 H50        -11.7840    -1.3640     0.5340 h1         1 0U4       0.036700
    102 H51        -13.7750    -0.2910    -0.0390 ha         1 0U4       0.117000
    103 H52        -15.2910     0.7220    -1.6980 ha         1 0U4       0.111500
    104 H53        -14.7310     0.6340    -4.1090 ha         1 0U4       0.111000
    105 H54        -12.6390    -0.4750    -4.8380 ha         1 0U4       0.111500
    106 H55        -11.1270    -1.4840    -3.1730 ha         1 0U4       0.117000
@<TRIPOS>BOND
     1     1     2 ar  
     2     1     6 ar  
     3     1    54 1   
     4     2     3 ar  
     5     2    55 1   
     6     3     4 ar  
     7     3    56 1   
     8     4     5 ar  
     9     4    57 1   
    10     5     6 ar  
    11     5    58 1   
    12     6     7 1   
    13     7     8 1   
    14     7     9 1   
    15     7    59 1   
    16     8    60 1   
    17     8    61 1   
    18     8    62 1   
    19     9    10 1   
    20     9    63 1   
    21    10    11 2   
    22    10    12 1   
    23    12    13 ar  
    24    12    14 ar  
    25    13    23 ar  
    26    13    64 1   
    27    14    15 ar  
    28    14    65 1   
    29    15    16 1   
    30    15    22 ar  
    31    16    17 1   
    32    16    18 1   
    33    17    66 1   
    34    17    67 1   
    35    17    68 1   
    36    18    19 1   
    37    18    20 2   
    38    18    21 2   
    39    19    69 1   
    40    19    70 1   
    41    19    71 1   
    42    22    23 ar  
    43    22    72 1   
    44    23    24 1   
    45    24    25 2   
    46    24    26 1   
    47    26    27 1   
    48    26    73 1   
    49    27    28 1   
    50    27    35 1   
    51    27    74 1   
    52    28    29 1   
    53    28    75 1   
    54    28    76 1   
    55    29    30 ar  
    56    29    34 ar  
    57    30    31 ar  
    58    30    77 1   
    59    31    32 ar  
    60    31    78 1   
    61    32    33 ar  
    62    32    79 1   
    63    33    34 ar  
    64    33    80 1   
    65    34    81 1   
    66    35    36 1   
    67    35    37 1   
    68    35    82 1   
    69    36    83 1   
    70    37    38 1   
    71    37    84 1   
    72    37    85 1   
    73    38    39 1   
    74    38    86 1   
    75    39    40 1   
    76    39    87 1   
    77    39    88 1   
    78    40    41 1   
    79    40    89 1   
    80    40    90 1   
    81    41    42 1   
    82    41    44 1   
    83    41    91 1   
    84    42    43 1   
    85    42    92 1   
    86    42    93 1   
    87    43    46 1   
    88    43    94 1   
    89    43    95 1   
    90    44    45 1   
    91    44    96 1   
    92    44    97 1   
    93    45    46 1   
    94    45    98 1   
    95    45    99 1   
    96    46    47 1   
    97    47    48 1   
    98    47   100 1   
    99    47   101 1   
   100    48    49 ar  
   101    48    53 ar  
   102    49    50 ar  
   103    49   102 1   
   104    50    51 ar  
   105    50   103 1   
   106    51    52 ar  
   107    51   104 1   
   108    52    53 ar  
   109    52   105 1   
   110    53   106 1   
@<TRIPOS>SUBSTRUCTURE
     1 0U4         1 TEMP              0 ****  ****    0 ROOT
