@<TRIPOS>MOLECULE
0U4
  106   110     1     0     0
SMALL
No Charge or Current Charge


@<TRIPOS>ATOM
      1 CAV          4.0170     5.4460     2.1680 ca         1 0U4      -0.101500
      2 CAP          2.9210     5.9610     2.8820 ca         1 0U4      -0.109000
      3 CAK          2.3960     5.2510     3.9750 ca         1 0U4      -0.102000
      4 CAQ          2.9680     4.0250     4.3530 ca         1 0U4      -0.109000
      5 CAW          4.0640     3.5110     3.6390 ca         1 0U4      -0.101500
      6 CBS          4.6010     4.2190     2.5430 ca         1 0U4      -0.106300
      7 CBU          5.7810     3.6600     1.7530 c3         1 0U4       0.165000
      8 CAA          7.0110     3.3900     2.6460 c3         1 0U4      -0.098100
      9 NBK          5.3600     2.4560     1.0410 ns         1 0U4      -0.498900
     10 CBM          6.0080     1.9040    -0.0420 c          1 0U4       0.614700
     11 OAD          7.0250     2.4080    -0.4980 o          1 0U4      -0.602100
     12 CBQ          5.3900     0.6550    -0.6420 ca         1 0U4      -0.144600
     13 CAX          4.1550     0.1320    -0.1910 ca         1 0U4      -0.063000
     14 CAY          6.0690    -0.0050    -1.6910 ca         1 0U4      -0.022000
     15 CBT          5.5560    -1.1780    -2.2880 ca         1 0U4       0.248000
     16 NBY          6.2170    -1.8800    -3.3400 nh         1 0U4      -0.775300
     17 CAB          6.1660    -3.3580    -3.4160 c3         1 0U4       0.197100
     18 SCA          7.2760    -1.1030    -4.4770 s6         1 0U4       1.198100
     19 CAC          8.8700    -1.0670    -3.6700 c3         1 0U4      -0.347100
     20 OAG          7.3680    -1.9840    -5.6450 o          1 0U4      -0.533000
     21 OAF          6.7980     0.2730    -4.6370 o          1 0U4      -0.533000
     22 CAZ          4.3210    -1.6690    -1.8160 ca         1 0U4      -0.058000
     23 CBR          3.6060    -1.0310    -0.7790 ca         1 0U4      -0.145600
     24 CBN          2.2780    -1.6140    -0.3350 c          1 0U4       0.619700
     25 OAE          1.8570    -2.6780    -0.7690 o          1 0U4      -0.608100
     26 NBL          1.5620    -0.8940     0.5940 ns         1 0U4      -0.488900
     27 CBX          0.2640    -1.2960     1.1540 c3         1 0U4       0.116700
     28 CBH          0.0910    -0.6990     2.5790 c3         1 0U4      -0.048100
     29 CBO          1.2950    -0.9380     3.4890 ca         1 0U4      -0.081300
     30 CAR          1.7220    -2.2500     3.7770 ca         1 0U4      -0.112500
     31 CAL          2.8300    -2.4710     4.6140 ca         1 0U4      -0.109500
     32 CAI          3.5140    -1.3810     5.1750 ca         1 0U4      -0.107000
     33 CAM          3.0910    -0.0700     4.9000 ca         1 0U4      -0.109500
     34 CAS          1.9870     0.1510     4.0580 ca         1 0U4      -0.112500
     35 CBV         -0.9010    -0.9770     0.1600 c3         1 0U4       0.157300
     36 OAH         -1.1080     0.4310    -0.0010 oh         1 0U4      -0.670000
     37 CBE         -2.2810    -1.5720     0.5500 c3         1 0U4       0.114800
     38 NBJ         -3.3600    -0.8830    -0.2120 n7         1 0U4      -0.882400
     39 CBA         -4.7310    -1.1990     0.2280 c3         1 0U4       0.162800
     40 CBB         -5.7530    -0.4140    -0.6200 c3         1 0U4      -0.076400
     41 CBW         -7.2420    -0.5860    -0.1860 c6         1 0U4      -0.059700
     42 CBD         -7.7450    -2.0500    -0.3150 c6         1 0U4      -0.073400
     43 CBG         -9.2410    -2.1680     0.0690 c6         1 0U4       0.168800
     44 CBC         -8.1750     0.3440    -1.0050 c6         1 0U4      -0.073400
     45 CBF         -9.6580     0.1600    -0.5990 c6         1 0U4       0.168800
     46 NBZ        -10.0940    -1.2580    -0.7420 n3         1 0U4      -0.720600
     47 CBI        -11.5370    -1.4490    -0.4580 c3         1 0U4       0.215100
     48 CBP        -12.4540    -0.6730    -1.4010 ca         1 0U4      -0.088300
     49 CAT        -13.2320     0.4010    -0.9200 ca         1 0U4      -0.098500
     50 CAN        -14.0750     1.1120    -1.7920 ca         1 0U4      -0.114500
     51 CAJ        -14.1460     0.7550    -3.1490 ca         1 0U4      -0.109000
     52 CAO        -13.3740    -0.3140    -3.6340 ca         1 0U4      -0.114500
     53 CAU        -12.5310    -1.0250    -2.7630 ca         1 0U4      -0.098500
     54 H1           4.4110     6.0040     1.3210 ha         1 0U4       0.114000
     55 H2           2.4770     6.9090     2.5870 ha         1 0U4       0.115000
     56 H3           1.5470     5.6490     4.5270 ha         1 0U4       0.115000
     57 H4           2.5620     3.4730     5.1980 ha         1 0U4       0.115000
     58 H5           4.4950     2.5580     3.9390 ha         1 0U4       0.114000
     59 H6           6.0760     4.4060     1.0020 h1         1 0U4       0.067700
     60 H7           6.8090     2.5930     3.3710 hc         1 0U4       0.045700
     61 H8           7.8740     3.0890     2.0410 hc         1 0U4       0.045700
     62 H9           7.2860     4.2960     3.1980 hc         1 0U4       0.045700
     63 H10          4.5250     1.9910     1.3650 hn         1 0U4       0.320500
     64 H11          3.6220     0.6280     0.6130 ha         1 0U4       0.128000
     65 H12          7.0110     0.4060    -2.0270 ha         1 0U4       0.142000
     66 H13          5.4050    -3.6790    -4.1390 h1         1 0U4       0.052367
     67 H14          7.1360    -3.7760    -3.7170 h1         1 0U4       0.052367
     68 H15          5.9230    -3.7910    -2.4370 h1         1 0U4       0.052367
     69 H16          8.7920    -0.4970    -2.7420 h1         1 0U4       0.104700
     70 H17          9.1550    -2.1050    -3.4690 h1         1 0U4       0.104700
     71 H18          9.5720    -0.5950    -4.3630 h1         1 0U4       0.104700
     72 H19          3.8960    -2.5540    -2.2800 ha         1 0U4       0.139000
     73 H20          1.9500    -0.0110     0.8930 hn         1 0U4       0.327500
     74 H21          0.2880    -2.3890     1.2680 h1         1 0U4       0.081700
     75 H22         -0.1060     0.3760     2.4950 hc         1 0U4       0.059700
     76 H23         -0.7980    -1.1320     3.0510 hc         1 0U4       0.059700
     77 H24          1.1950    -3.1030     3.3540 ha         1 0U4       0.112500
     78 H25          3.1540    -3.4860     4.8300 ha         1 0U4       0.114500
     79 H26          4.3690    -1.5510     5.8260 ha         1 0U4       0.116000
     80 H27          3.6160     0.7720     5.3430 ha         1 0U4       0.114500
     81 H28          1.6680     1.1710     3.8520 ha         1 0U4       0.112500
     82 H29         -0.6360    -1.4090    -0.8150 h1         1 0U4       0.044700
     83 H30         -2.0950     0.4530    -0.1150 ho         1 0U4       0.473000
     84 H31         -2.2840    -2.6540     0.3550 h1         1 0U4       0.044200
     85 H32         -2.4460    -1.4310     1.6250 h1         1 0U4       0.044200
     86 H33         -3.2810    -1.1560    -1.2020 hn         1 0U4       0.412000
     87 H35         -4.9200    -2.2760     0.1270 h1         1 0U4       0.032200
     88 H36         -4.8620    -0.9310     1.2850 h1         1 0U4       0.032200
     89 H37         -5.4880     0.6490    -0.5680 hc         1 0U4       0.048200
     90 H38         -5.6390    -0.7080    -1.6700 hc         1 0U4       0.048200
     91 H39         -7.2980    -0.2880     0.8710 hc         1 0U4       0.044700
     92 H40         -7.6040    -2.4070    -1.3440 hc         1 0U4       0.046450
     93 H41         -7.1610    -2.7170     0.3320 hc         1 0U4       0.046450
     94 H42         -9.5570    -3.2120    -0.0730 h1         1 0U4       0.032450
     95 H43         -9.3540    -1.9400     1.1400 h1         1 0U4       0.032450
     96 H44         -7.8860     1.3940    -0.8580 hc         1 0U4       0.046450
     97 H45         -8.0650     0.1370    -2.0780 hc         1 0U4       0.046450
     98 H46         -9.7900     0.4950     0.4410 h1         1 0U4       0.032450
     99 H47        -10.2710     0.8200    -1.2310 h1         1 0U4       0.032450
    100 H49        -11.7920    -2.5140    -0.5470 h1         1 0U4       0.036700
    101 H50        -11.7560    -1.1590     0.5790 h1         1 0U4       0.036700
    102 H51        -13.1810     0.6850     0.1290 ha         1 0U4       0.117000
    103 H52        -14.6720     1.9400    -1.4150 ha         1 0U4       0.111500
    104 H53        -14.7980     1.3060    -3.8240 ha         1 0U4       0.111000
    105 H54        -13.4270    -0.5900    -4.6850 ha         1 0U4       0.111500
    106 H55        -11.9310    -1.8490    -3.1440 ha         1 0U4       0.117000
@<TRIPOS>BOND
     1     1     2 ar  
     2     1     6 ar  
     3     1    54 1   
     4     2     3 ar  
     5     2    55 1   
     6     3     4 ar  
     7     3    56 1   
     8     4     5 ar  
     9     4    57 1   
    10     5     6 ar  
    11     5    58 1   
    12     6     7 1   
    13     7     8 1   
    14     7     9 1   
    15     7    59 1   
    16     8    60 1   
    17     8    61 1   
    18     8    62 1   
    19     9    10 1   
    20     9    63 1   
    21    10    11 2   
    22    10    12 1   
    23    12    13 ar  
    24    12    14 ar  
    25    13    23 ar  
    26    13    64 1   
    27    14    15 ar  
    28    14    65 1   
    29    15    16 1   
    30    15    22 ar  
    31    16    17 1   
    32    16    18 1   
    33    17    66 1   
    34    17    67 1   
    35    17    68 1   
    36    18    19 1   
    37    18    20 2   
    38    18    21 2   
    39    19    69 1   
    40    19    70 1   
    41    19    71 1   
    42    22    23 ar  
    43    22    72 1   
    44    23    24 1   
    45    24    25 2   
    46    24    26 1   
    47    26    27 1   
    48    26    73 1   
    49    27    28 1   
    50    27    35 1   
    51    27    74 1   
    52    28    29 1   
    53    28    75 1   
    54    28    76 1   
    55    29    30 ar  
    56    29    34 ar  
    57    30    31 ar  
    58    30    77 1   
    59    31    32 ar  
    60    31    78 1   
    61    32    33 ar  
    62    32    79 1   
    63    33    34 ar  
    64    33    80 1   
    65    34    81 1   
    66    35    36 1   
    67    35    37 1   
    68    35    82 1   
    69    36    83 1   
    70    37    38 1   
    71    37    84 1   
    72    37    85 1   
    73    38    39 1   
    74    38    86 1   
    75    39    40 1   
    76    39    87 1   
    77    39    88 1   
    78    40    41 1   
    79    40    89 1   
    80    40    90 1   
    81    41    42 1   
    82    41    44 1   
    83    41    91 1   
    84    42    43 1   
    85    42    92 1   
    86    42    93 1   
    87    43    46 1   
    88    43    94 1   
    89    43    95 1   
    90    44    45 1   
    91    44    96 1   
    92    44    97 1   
    93    45    46 1   
    94    45    98 1   
    95    45    99 1   
    96    46    47 1   
    97    47    48 1   
    98    47   100 1   
    99    47   101 1   
   100    48    49 ar  
   101    48    53 ar  
   102    49    50 ar  
   103    49   102 1   
   104    50    51 ar  
   105    50   103 1   
   106    51    52 ar  
   107    51   104 1   
   108    52    53 ar  
   109    52   105 1   
   110    53   106 1   
@<TRIPOS>SUBSTRUCTURE
     1 0U4         1 TEMP              0 ****  ****    0 ROOT
