@<TRIPOS>MOLECULE
0U5
   76    79     1     0     0
SMALL
abcg2


@<TRIPOS>ATOM
      1 N01         -1.6620     2.2420     2.6860 nv         1 0U5      -1.067900
      2 C02         -2.5010     2.4630     1.6480 ca         1 0U5       0.414900
      3 C03         -3.5150     1.5450     1.2950 ca         1 0U5      -0.307300
      4 C04         -3.7590     0.2680     2.0560 c3         1 0U5       0.049200
      5 C05         -3.0860    -0.9370     1.4370 ca         1 0U5      -0.052300
      6 C06         -3.8180    -2.1010     1.1980 ca         1 0U5      -0.185000
      7 C07         -3.2190    -3.2090     0.6130 ca         1 0U5       0.118100
      8 O08         -3.8520    -4.3620     0.3380 os         1 0U5      -0.327100
      9 C09         -5.2260    -4.4670     0.6540 c3         1 0U5       0.145900
     10 C10         -1.8590    -3.1600     0.2700 ca         1 0U5       0.085100
     11 O11         -1.2820    -4.2580    -0.2840 os         1 0U5      -0.347100
     12 C12         -1.3990    -4.3340    -1.7020 c3         1 0U5       0.148900
     13 C13         -1.1140    -2.0050     0.5140 ca         1 0U5      -0.049800
     14 C14          0.3060    -1.9870     0.1720 ce         1 0U5      -0.089200
     15 C15          1.1090    -0.9180     0.2360 cf         1 0U5      -0.270200
     16 C16          2.5350    -1.0530    -0.1190 c          1 0U5       0.629300
     17 N17          3.3370     0.0450     0.0850 n          1 0U5      -0.178800
     18 N18          2.7520     1.2030     0.4750 n2         1 0U5      -0.431300
     19 C19          3.5000     2.1620     0.8620 ce         1 0U5       0.388800
     20 C20          4.7380    -0.0120    -0.3590 c6         1 0U5       0.184200
     21 C21          4.8400     0.3390    -1.8170 c2         1 0U5      -0.256200
     22 C22          5.3340    -0.4250    -2.7940 c2         1 0U5      -0.072400
     23 C23          5.4000     0.0910    -4.2020 c3         1 0U5      -0.061900
     24 C24          5.5640     0.9460     0.4570 ca         1 0U5      -0.071300
     25 C25          4.9430     2.0750     0.9820 ca         1 0U5      -0.162900
     26 C26          5.6900     3.0390     1.6570 ca         1 0U5      -0.082000
     27 C27          7.0560     2.8670     1.8110 ca         1 0U5      -0.111000
     28 C28          7.6730     1.7310     1.2970 ca         1 0U5      -0.098000
     29 C29          6.9300     0.7730     0.6200 ca         1 0U5      -0.095000
     30 O30          3.0170    -2.0890    -0.5490 o          1 0U5      -0.591100
     31 C31         -1.7460    -0.9030     1.1000 ca         1 0U5      -0.112000
     32 C32         -4.2530     1.8860     0.1710 ca         1 0U5       0.202300
     33 N33         -4.0420     3.0030    -0.5280 nb         1 0U5      -0.285000
     34 C34         -3.0640     3.7970    -0.1000 ca         1 0U5       0.414900
     35 N35         -2.8150     4.9140    -0.8220 nv         1 0U5      -1.062900
     36 N36         -2.2860     3.5790     0.9560 nb         1 0U5      -0.330000
     37 C37          5.8690    -1.8130    -2.6190 c3         1 0U5      -0.061900
     38 C38         -5.3940     1.0370    -0.3120 c3         1 0U5      -0.139700
     39 C39         -6.7250     1.4780     0.3030 c3         1 0U5      -0.071400
     40 C40         -7.8930     0.6440    -0.2030 c3         1 0U5      -0.089100
     41 HN01        -1.0880     3.0120     2.9860 hn         1 0U5       0.484500
     42 HN0A        -1.8960     1.5740     3.3980 hn         1 0U5       0.484500
     43 H04         -3.4290     0.3670     3.0940 hc         1 0U5       0.044700
     44 H04A        -4.8310     0.0790     2.1340 hc         1 0U5       0.044700
     45 H06         -4.8640    -2.1230     1.4760 ha         1 0U5       0.116000
     46 H09         -5.5360    -5.4620     0.3490 h1         1 0U5       0.040367
     47 H09A        -5.4070    -4.3540     1.7260 h1         1 0U5       0.040367
     48 H09B        -5.8260    -3.7300     0.1150 h1         1 0U5       0.040367
     49 H12         -0.9270    -5.2640    -2.0120 h1         1 0U5       0.037367
     50 H12A        -2.4430    -4.3440    -2.0230 h1         1 0U5       0.037367
     51 H12B        -0.8880    -3.5000    -2.1890 h1         1 0U5       0.037367
     52 H14          0.7350    -2.9290    -0.1490 ha         1 0U5       0.207000
     53 H15          0.7490     0.0510     0.5460 ha         1 0U5       0.210000
     54 H20          5.0880    -1.0250    -0.1750 h1         1 0U5       0.095700
     55 H23          5.0280     1.1110    -4.2880 hc         1 0U5       0.043200
     56 H23A         6.4280     0.0730    -4.5720 hc         1 0U5       0.043200
     57 H22          4.8170    -0.5430    -4.8750 hc         1 0U5       0.043200
     58 H26          5.1970     3.9110     2.0690 ha         1 0U5       0.116000
     59 H27          7.6400     3.6130     2.3330 ha         1 0U5       0.116000
     60 H28          8.7390     1.5920     1.4210 ha         1 0U5       0.115000
     61 H29          7.4180    -0.1030     0.2100 ha         1 0U5       0.120000
     62 H31         -1.1750    -0.0060     1.3020 ha         1 0U5       0.131000
     63 HN35        -3.5020     5.2140    -1.4910 hn         1 0U5       0.490500
     64 HN3A        -2.2280     5.6250    -0.4220 hn         1 0U5       0.490500
     65 H37          5.3740    -2.4960    -3.3130 hc         1 0U5       0.043200
     66 H37A         6.9340    -1.8410    -2.8630 hc         1 0U5       0.043200
     67 H37B         5.7420    -2.2140    -1.6170 hc         1 0U5       0.043200
     68 H38         -5.4550     1.1310    -1.3990 hc         1 0U5       0.060700
     69 H38A        -5.2220    -0.0190    -0.0970 hc         1 0U5       0.060700
     70 H39         -6.6670     1.4060     1.3930 hc         1 0U5       0.043700
     71 H36         -6.8900     2.5330     0.0730 hc         1 0U5       0.043700
     72 H40         -7.7620    -0.4110     0.0460 hc         1 0U5       0.032033
     73 H40A        -8.8340     0.9730     0.2380 hc         1 0U5       0.032033
     74 H391        -7.9900     0.7180    -1.2870 hc         1 0U5       0.032033
     75 H21          4.4840     1.3350    -2.0680 ha         1 0U5       0.176000
     76 H19          2.9870     3.0650     1.1720 h4         1 0U5       0.037800
@<TRIPOS>BOND
     1     1     2 1   
     2     1    41 1   
     3     1    42 1   
     4     2     3 ar  
     5     2    36 ar  
     6     3     4 1   
     7     3    32 ar  
     8     4     5 1   
     9     4    43 1   
    10     4    44 1   
    11     5     6 ar  
    12     5    31 ar  
    13     6     7 ar  
    14     6    45 1   
    15     7     8 1   
    16     7    10 ar  
    17     8     9 1   
    18     9    46 1   
    19     9    47 1   
    20     9    48 1   
    21    10    11 1   
    22    10    13 ar  
    23    11    12 1   
    24    12    49 1   
    25    12    50 1   
    26    12    51 1   
    27    13    14 1   
    28    13    31 ar  
    29    14    15 2   
    30    14    52 1   
    31    15    16 1   
    32    15    53 1   
    33    16    17 1   
    34    16    30 2   
    35    17    18 1   
    36    17    20 1   
    37    18    19 2   
    38    19    25 1   
    39    19    76 1   
    40    20    21 1   
    41    20    24 1   
    42    20    54 1   
    43    21    22 2   
    44    21    75 1   
    45    22    23 1   
    46    22    37 1   
    47    23    55 1   
    48    23    56 1   
    49    23    57 1   
    50    24    25 ar  
    51    24    29 ar  
    52    25    26 ar  
    53    26    27 ar  
    54    26    58 1   
    55    27    28 ar  
    56    27    59 1   
    57    28    29 ar  
    58    28    60 1   
    59    29    61 1   
    60    31    62 1   
    61    32    33 ar  
    62    32    38 1   
    63    33    34 ar  
    64    34    35 1   
    65    34    36 ar  
    66    35    63 1   
    67    35    64 1   
    68    37    65 1   
    69    37    66 1   
    70    37    67 1   
    71    38    39 1   
    72    38    68 1   
    73    38    69 1   
    74    39    40 1   
    75    39    70 1   
    76    39    71 1   
    77    40    72 1   
    78    40    73 1   
    79    40    74 1   
@<TRIPOS>SUBSTRUCTURE
     1 0U5         1 TEMP              0 ****  ****    0 ROOT
