@<TRIPOS>MOLECULE
0U5
   76    79     1     0     0
SMALL
No Charge or Current Charge


@<TRIPOS>ATOM
      1 N01         -1.7050     2.2570     3.0840 nv         1 0U5      -1.067900
      2 C02         -2.3820     2.4760     1.9300 ca         1 0U5       0.414900
      3 C03         -3.3490     1.5870     1.4200 ca         1 0U5      -0.307300
      4 C04         -3.7160     0.2730     2.1300 c3         1 0U5       0.049200
      5 C05         -3.0800    -0.9490     1.4680 ca         1 0U5      -0.052300
      6 C06         -3.8640    -2.0670     1.1410 ca         1 0U5      -0.185000
      7 C07         -3.2920    -3.2050     0.5240 ca         1 0U5       0.118100
      8 O08         -4.0900    -4.2930     0.2060 os         1 0U5      -0.327100
      9 C09         -5.5080    -4.3310     0.4490 c3         1 0U5       0.145900
     10 C10         -1.8900    -3.2140     0.2340 ca         1 0U5       0.085100
     11 O11         -1.2170    -4.2700    -0.3790 os         1 0U5      -0.347100
     12 C12         -1.8230    -5.5030    -0.8060 c3         1 0U5       0.148900
     13 C13         -1.1050    -2.0800     0.5680 ca         1 0U5      -0.049800
     14 C14          0.3630    -2.0530     0.2800 ce         1 0U5      -0.089200
     15 C15          1.1660    -0.9620     0.0920 cf         1 0U5      -0.270200
     16 C16          2.6320    -1.0350    -0.1940 c          1 0U5       0.629300
     17 N17          3.3640     0.1750    -0.3710 n          1 0U5      -0.178800
     18 N18          2.7820     1.4260    -0.1690 n2         1 0U5      -0.431300
     19 C19          3.3360     2.2740     0.6480 ce         1 0U5       0.388800
     20 C20          4.8370     0.1850    -0.6200 c6         1 0U5       0.184200
     21 C21          5.1430     0.6410    -2.0440 c2         1 0U5      -0.256200
     22 C22          5.3120    -0.1420    -3.1280 c2         1 0U5      -0.072400
     23 C23          5.5960     0.4380    -4.5020 c3         1 0U5      -0.061900
     24 C24          5.5290     1.1020     0.3980 ca         1 0U5      -0.071300
     25 C25          4.7790     2.1310     1.0060 ca         1 0U5      -0.162900
     26 C26          5.3940     2.9920     1.9350 ca         1 0U5      -0.082000
     27 C27          6.7530     2.8260     2.2530 ca         1 0U5      -0.111000
     28 C28          7.5010     1.8020     1.6460 ca         1 0U5      -0.098000
     29 C29          6.8900     0.9410     0.7180 ca         1 0U5      -0.095000
     30 O30          3.1840    -2.1280    -0.2690 o          1 0U5      -0.591100
     31 C31         -1.7060    -0.9670     1.1850 ca         1 0U5      -0.112000
     32 C32         -3.9590     1.9700     0.1980 ca         1 0U5       0.202300
     33 N33         -3.6230     3.1220    -0.4180 nb         1 0U5      -0.285000
     34 C34         -2.6910     3.8690     0.1790 ca         1 0U5       0.414900
     35 N35         -2.3620     5.0240    -0.4400 nv         1 0U5      -1.062900
     36 N36         -2.0490     3.6160     1.3200 nb         1 0U5      -0.330000
     37 C37          5.2440    -1.6610    -3.1560 c3         1 0U5      -0.061900
     38 C38         -5.0300     1.1430    -0.5110 c3         1 0U5      -0.139700
     39 C39         -6.4600     1.4840    -0.0360 c3         1 0U5      -0.071400
     40 C40         -7.5390     0.6100    -0.7030 c3         1 0U5      -0.089100
     41 HN01        -1.1780     3.0310     3.4810 hn         1 0U5       0.484500
     42 HN0A        -2.0480     1.5560     3.7310 hn         1 0U5       0.484500
     43 H04         -3.4280     0.2920     3.1870 hc         1 0U5       0.044700
     44 H04A        -4.8060     0.1630     2.1530 hc         1 0U5       0.044700
     45 H06         -4.9230    -2.0320     1.3730 ha         1 0U5       0.116000
     46 H09         -5.9260    -5.2870     0.1080 h1         1 0U5       0.040367
     47 H09A        -5.7230    -4.2310     1.5210 h1         1 0U5       0.040367
     48 H09B        -6.0190    -3.5250    -0.0920 h1         1 0U5       0.040367
     49 H12         -1.0660    -6.1580    -1.2560 h1         1 0U5       0.037367
     50 H12A        -2.2650    -6.0390     0.0440 h1         1 0U5       0.037367
     51 H12B        -2.5970    -5.3190    -1.5610 h1         1 0U5       0.037367
     52 H14          0.8250    -3.0390     0.2080 ha         1 0U5       0.207000
     53 H15          0.7250     0.0300     0.1360 ha         1 0U5       0.210000
     54 H20          5.2440    -0.8220    -0.4580 h1         1 0U5       0.095700
     55 H23          5.6410     1.5340    -4.4810 hc         1 0U5       0.043200
     56 H23A         6.5560     0.0780    -4.8920 hc         1 0U5       0.043200
     57 H22          4.8160     0.1560    -5.2190 hc         1 0U5       0.043200
     58 H26          4.8220     3.7870     2.4100 ha         1 0U5       0.116000
     59 H27          7.2280     3.4920     2.9710 ha         1 0U5       0.116000
     60 H28          8.5530     1.6770     1.8920 ha         1 0U5       0.115000
     61 H29          7.4730     0.1530     0.2460 ha         1 0U5       0.120000
     62 H31         -1.1020    -0.1080     1.4580 ha         1 0U5       0.131000
     63 HN35        -2.9790     5.3670    -1.1720 hn         1 0U5       0.490500
     64 HN3A        -1.8400     5.7210     0.0830 hn         1 0U5       0.490500
     65 H37          4.4360    -2.0030    -3.8140 hc         1 0U5       0.043200
     66 H37A         6.1810    -2.0870    -3.5340 hc         1 0U5       0.043200
     67 H37B         5.0670    -2.1050    -2.1730 hc         1 0U5       0.043200
     68 H38         -4.9720     1.3100    -1.5940 hc         1 0U5       0.060700
     69 H38A        -4.8470     0.0730    -0.3770 hc         1 0U5       0.060700
     70 H39         -6.5270     1.3620     1.0520 hc         1 0U5       0.043700
     71 H36         -6.6710     2.5390    -0.2490 hc         1 0U5       0.043700
     72 H40         -7.3760    -0.4500    -0.4750 hc         1 0U5       0.032033
     73 H40A        -8.5360     0.8890    -0.3390 hc         1 0U5       0.032033
     74 H391        -7.5240     0.7380    -1.7920 hc         1 0U5       0.032033
     75 H21          5.2100     1.7230    -2.1530 ha         1 0U5       0.176000
     76 H19          2.7950     3.1390     1.0360 h4         1 0U5       0.037800
@<TRIPOS>BOND
     1     1     2 1   
     2     1    41 1   
     3     1    42 1   
     4     2     3 ar  
     5     2    36 ar  
     6     3     4 1   
     7     3    32 ar  
     8     4     5 1   
     9     4    43 1   
    10     4    44 1   
    11     5     6 ar  
    12     5    31 ar  
    13     6     7 ar  
    14     6    45 1   
    15     7     8 1   
    16     7    10 ar  
    17     8     9 1   
    18     9    46 1   
    19     9    47 1   
    20     9    48 1   
    21    10    11 1   
    22    10    13 ar  
    23    11    12 1   
    24    12    49 1   
    25    12    50 1   
    26    12    51 1   
    27    13    14 1   
    28    13    31 ar  
    29    14    15 2   
    30    14    52 1   
    31    15    16 1   
    32    15    53 1   
    33    16    17 1   
    34    16    30 2   
    35    17    18 1   
    36    17    20 1   
    37    18    19 2   
    38    19    25 1   
    39    19    76 1   
    40    20    21 1   
    41    20    24 1   
    42    20    54 1   
    43    21    22 2   
    44    21    75 1   
    45    22    23 1   
    46    22    37 1   
    47    23    55 1   
    48    23    56 1   
    49    23    57 1   
    50    24    25 ar  
    51    24    29 ar  
    52    25    26 ar  
    53    26    27 ar  
    54    26    58 1   
    55    27    28 ar  
    56    27    59 1   
    57    28    29 ar  
    58    28    60 1   
    59    29    61 1   
    60    31    62 1   
    61    32    33 ar  
    62    32    38 1   
    63    33    34 ar  
    64    34    35 1   
    65    34    36 ar  
    66    35    63 1   
    67    35    64 1   
    68    37    65 1   
    69    37    66 1   
    70    37    67 1   
    71    38    39 1   
    72    38    68 1   
    73    38    69 1   
    74    39    40 1   
    75    39    70 1   
    76    39    71 1   
    77    40    72 1   
    78    40    73 1   
    79    40    74 1   
@<TRIPOS>SUBSTRUCTURE
     1 0U5         1 TEMP              0 ****  ****    0 ROOT
