@<TRIPOS>MOLECULE
0U6
   73    76     1     0     0
SMALL
No Charge or Current Charge


@<TRIPOS>ATOM
      1 N01         -4.6770    31.1270    -1.9920 nv         1 0U6      -1.073900
      2 C02         -5.3400    30.3650    -2.8970 ca         1 0U6       0.411900
      3 C03         -4.9800    30.2880    -4.2580 ca         1 0U6      -0.303300
      4 C04         -3.7970    31.0780    -4.8420 c3         1 0U6       0.050200
      5 C05         -4.2550    32.2090    -5.7590 ca         1 0U6      -0.056300
      6 C06         -3.7350    32.3310    -7.0580 ca         1 0U6      -0.180000
      7 C07         -4.1670    33.3640    -7.9220 ca         1 0U6       0.113100
      8 O08         -3.6430    33.4590    -9.2030 os         1 0U6      -0.336100
      9 C09         -2.6780    32.5320    -9.7320 c3         1 0U6       0.146900
     10 C10         -5.1480    34.2990    -7.4590 ca         1 0U6       0.087100
     11 O11         -5.6590    35.3500    -8.2210 os         1 0U6      -0.354100
     12 C12         -5.2840    35.6480    -9.5780 c3         1 0U6       0.149900
     13 C13         -5.6660    34.1690    -6.1450 ca         1 0U6      -0.048800
     14 C14         -6.6940    35.1250    -5.6290 ce         1 0U6      -0.088200
     15 C15         -7.6210    34.9170    -4.6450 cf         1 0U6      -0.266200
     16 C16         -8.6160    35.9400    -4.1970 c          1 0U6       0.627300
     17 N17         -9.5330    35.6060    -3.1580 n          1 0U6      -0.189800
     18 N18         -9.4540    34.3980    -2.4650 n2         1 0U6      -0.427300
     19 C19         -9.3890    34.3990    -1.1660 ce         1 0U6       0.391800
     20 C20        -10.5300    36.5840    -2.6310 c6         1 0U6       0.186200
     21 C21        -11.9480    36.1790    -3.0260 c2         1 0U6      -0.251200
     22 C22        -12.6360    36.5860    -4.1110 c2         1 0U6      -0.078400
     23 C23        -12.1410    37.5550    -5.1750 c3         1 0U6      -0.059900
     24 C24        -10.4040    36.6810    -1.1040 ca         1 0U6      -0.068300
     25 C25         -9.8500    35.5940    -0.3970 ca         1 0U6      -0.162900
     26 C26         -9.7340    35.6540     1.0050 ca         1 0U6      -0.081000
     27 C27        -10.1740    36.7970     1.6970 ca         1 0U6      -0.112000
     28 C28        -10.7290    37.8790     0.9920 ca         1 0U6      -0.097000
     29 C29        -10.8460    37.8220    -0.4070 ca         1 0U6      -0.096000
     30 O30         -8.6280    37.0490    -4.7210 o          1 0U6      -0.597100
     31 C31         -5.2100    33.1320    -5.3110 ca         1 0U6      -0.107000
     32 C32         -5.7910    29.4470    -5.0660 ca         1 0U6       0.198300
     33 N33         -6.8290    28.7660    -4.5380 nb         1 0U6      -0.280000
     34 C34         -7.0530    28.9310    -3.2320 ca         1 0U6       0.398900
     35 N35         -8.0920    28.2400    -2.7100 nv         1 0U6      -1.047900
     36 N36         -6.3690    29.6910    -2.3770 nb         1 0U6      -0.323000
     37 C37        -14.0410    36.0940    -4.4030 c3         1 0U6      -0.059900
     38 C38         -5.5850    29.2380    -6.5670 c3         1 0U6      -0.132700
     39 C39         -6.5590    30.0730    -7.4250 c3         1 0U6      -0.085100
     40 HN01        -4.8750    30.9750    -1.0060 hn         1 0U6       0.488000
     41 HN0A        -3.7540    31.4770    -2.2240 hn         1 0U6       0.488000
     42 H04         -3.1630    31.5050    -4.0570 hc         1 0U6       0.044700
     43 H04A        -3.1290    30.3930    -5.3780 hc         1 0U6       0.044700
     44 H06         -2.9950    31.6050    -7.3810 ha         1 0U6       0.115000
     45 H09         -2.4190    32.8020   -10.7630 h1         1 0U6       0.042367
     46 H09A        -1.7570    32.5440    -9.1370 h1         1 0U6       0.042367
     47 H09B        -3.0820    31.5110    -9.7410 h1         1 0U6       0.042367
     48 H12         -5.8400    36.5230    -9.9380 h1         1 0U6       0.039700
     49 H12A        -4.2140    35.8810    -9.6480 h1         1 0U6       0.039700
     50 H12B        -5.5160    34.8080   -10.2440 h1         1 0U6       0.039700
     51 H14         -6.6890    36.1000    -6.1210 ha         1 0U6       0.207000
     52 H15         -7.6620    33.9480    -4.1570 ha         1 0U6       0.208000
     53 H20        -10.3080    37.5840    -3.0260 h1         1 0U6       0.096700
     54 H26         -9.3060    34.8200     1.5580 ha         1 0U6       0.116000
     55 H27        -10.0850    36.8430     2.7810 ha         1 0U6       0.116000
     56 H28        -11.0700    38.7610     1.5300 ha         1 0U6       0.115000
     57 H29        -11.2800    38.6590    -0.9490 ha         1 0U6       0.120000
     58 H31         -5.5940    33.0400    -4.2980 ha         1 0U6       0.132000
     59 HN35        -8.4980    27.4890    -3.2620 hn         1 0U6       0.482500
     60 HN3A        -8.1640    28.1610    -1.6990 hn         1 0U6       0.482500
     61 H37        -14.7530    36.9280    -4.4380 hc         1 0U6       0.042867
     62 H37A       -14.0860    35.5750    -5.3680 hc         1 0U6       0.042867
     63 H37B       -14.3950    35.3930    -3.6380 hc         1 0U6       0.042867
     64 H38         -4.5590    29.4680    -6.8710 hc         1 0U6       0.053200
     65 H38A        -5.7270    28.1790    -6.8140 hc         1 0U6       0.053200
     66 H39         -6.3590    29.9180    -8.4920 hc         1 0U6       0.041033
     67 H39A        -7.5980    29.7830    -7.2260 hc         1 0U6       0.041033
     68 H39B        -6.4570    31.1420    -7.2100 hc         1 0U6       0.041033
     69 H21        -12.4110    35.4740    -2.3360 ha         1 0U6       0.177000
     70 H23        -12.8100    38.4200    -5.2560 hc         1 0U6       0.042867
     71 H23A       -11.1400    37.9450    -4.9730 hc         1 0U6       0.042867
     72 H33        -12.1060    37.0710    -6.1580 hc         1 0U6       0.042867
     73 H19         -9.0660    33.5210    -0.6030 h4         1 0U6       0.038800
@<TRIPOS>BOND
     1     1     2 1   
     2     1    40 1   
     3     1    41 1   
     4     2     3 ar  
     5     2    36 ar  
     6     3     4 1   
     7     3    32 ar  
     8     4     5 1   
     9     4    42 1   
    10     4    43 1   
    11     5     6 ar  
    12     5    31 ar  
    13     6     7 ar  
    14     6    44 1   
    15     7     8 1   
    16     7    10 ar  
    17     8     9 1   
    18     9    45 1   
    19     9    46 1   
    20     9    47 1   
    21    10    11 1   
    22    10    13 ar  
    23    11    12 1   
    24    12    48 1   
    25    12    49 1   
    26    12    50 1   
    27    13    14 1   
    28    13    31 ar  
    29    14    15 2   
    30    14    51 1   
    31    15    16 1   
    32    15    52 1   
    33    16    17 1   
    34    16    30 2   
    35    17    18 1   
    36    17    20 1   
    37    18    19 2   
    38    19    25 1   
    39    19    73 1   
    40    20    21 1   
    41    20    24 1   
    42    20    53 1   
    43    21    22 2   
    44    21    69 1   
    45    22    23 1   
    46    22    37 1   
    47    23    70 1   
    48    23    71 1   
    49    23    72 1   
    50    24    25 ar  
    51    24    29 ar  
    52    25    26 ar  
    53    26    27 ar  
    54    26    54 1   
    55    27    28 ar  
    56    27    55 1   
    57    28    29 ar  
    58    28    56 1   
    59    29    57 1   
    60    31    58 1   
    61    32    33 ar  
    62    32    38 1   
    63    33    34 ar  
    64    34    35 1   
    65    34    36 ar  
    66    35    59 1   
    67    35    60 1   
    68    37    61 1   
    69    37    62 1   
    70    37    63 1   
    71    38    39 1   
    72    38    64 1   
    73    38    65 1   
    74    39    66 1   
    75    39    67 1   
    76    39    68 1   
@<TRIPOS>SUBSTRUCTURE
     1 0U6         1 TEMP              0 ****  ****    0 ROOT
