@<TRIPOS>MOLECULE
0U6
   73    76     1     0     0
SMALL
abcg2


@<TRIPOS>ATOM
      1 N01         -4.4880    31.2380    -2.2300 nv         1 0U6      -1.073900
      2 C02         -5.1880    30.3680    -3.0050 ca         1 0U6       0.411900
      3 C03         -4.9010    30.1800    -4.3790 ca         1 0U6      -0.303300
      4 C04         -3.7700    30.9000    -5.0710 c3         1 0U6       0.050200
      5 C05         -4.2010    32.1170    -5.8690 ca         1 0U6      -0.056300
      6 C06         -3.5970    32.3790    -7.1020 ca         1 0U6      -0.180000
      7 C07         -3.9840    33.4770    -7.8630 ca         1 0U6       0.113100
      8 O08         -3.4510    33.8030    -9.0680 os         1 0U6      -0.336100
      9 C09         -2.4210    32.9690    -9.5960 c3         1 0U6       0.146900
     10 C10         -4.9960    34.3290    -7.3860 ca         1 0U6       0.087100
     11 O11         -5.3530    35.4270    -8.1270 os         1 0U6      -0.354100
     12 C12         -6.2580    35.1490    -9.2080 c3         1 0U6       0.149900
     13 C13         -5.6060    34.0780    -6.1500 ca         1 0U6      -0.048800
     14 C14         -6.6580    34.9760    -5.6910 ce         1 0U6      -0.088200
     15 C15         -7.3650    34.8560    -4.5580 cf         1 0U6      -0.266200
     16 C16         -8.4050    35.8470    -4.2290 c          1 0U6       0.627300
     17 N17         -9.1020    35.6610    -3.0500 n          1 0U6      -0.189800
     18 N18         -8.8810    34.5210    -2.3200 n2         1 0U6      -0.427300
     19 C19         -9.3520    34.4760    -1.1260 ce         1 0U6       0.391800
     20 C20        -10.2210    36.5830    -2.7370 c6         1 0U6       0.186200
     21 C21        -11.4940    36.0900    -3.3770 c2         1 0U6      -0.251200
     22 C22        -12.3170    36.7870    -4.1650 c2         1 0U6      -0.078400
     23 C23        -12.1130    38.2160    -4.5760 c3         1 0U6      -0.059900
     24 C24        -10.3830    36.6820    -1.2410 ca         1 0U6      -0.068300
     25 C25        -10.0290    35.5760    -0.4650 ca         1 0U6      -0.162900
     26 C26        -10.2650    35.5810     0.9130 ca         1 0U6      -0.081000
     27 C27        -10.8410    36.6930     1.5110 ca         1 0U6      -0.112000
     28 C28        -11.1780    37.8020     0.7360 ca         1 0U6      -0.097000
     29 C29        -10.9510    37.7960    -0.6370 ca         1 0U6      -0.096000
     30 O30         -8.6580    36.8220    -4.9390 o          1 0U6      -0.597100
     31 C31         -5.1880    32.9650    -5.4030 ca         1 0U6      -0.107000
     32 C32         -5.7600    29.3220    -5.0570 ca         1 0U6       0.198300
     33 N33         -6.7770    28.6830    -4.4520 nb         1 0U6      -0.280000
     34 C34         -6.9420    28.9170    -3.1460 ca         1 0U6       0.398900
     35 N35         -7.9960    28.3000    -2.5300 nv         1 0U6      -1.047900
     36 N36         -6.1950    29.7300    -2.3940 nb         1 0U6      -0.323000
     37 C37        -13.5730    36.1580    -4.7000 c3         1 0U6      -0.059900
     38 C38         -5.6510    29.0740    -6.5390 c3         1 0U6      -0.132700
     39 C39         -6.6350    29.9450    -7.3330 c3         1 0U6      -0.085100
     40 HN01        -4.6340    31.1880    -1.2350 hn         1 0U6       0.488000
     41 HN0A        -3.6050    31.6030    -2.5400 hn         1 0U6       0.488000
     42 H04         -3.0110    31.2040    -4.3450 hc         1 0U6       0.044700
     43 H04A        -3.2520    30.2140    -5.7410 hc         1 0U6       0.044700
     44 H06         -2.8310    31.7080    -7.4650 ha         1 0U6       0.115000
     45 H09         -2.1430    33.4110   -10.5500 h1         1 0U6       0.042367
     46 H09A        -1.5530    32.9500    -8.9320 h1         1 0U6       0.042367
     47 H09B        -2.7820    31.9500    -9.7540 h1         1 0U6       0.042367
     48 H12         -6.4350    36.0970    -9.7130 h1         1 0U6       0.039700
     49 H12A        -5.8190    34.4340    -9.9050 h1         1 0U6       0.039700
     50 H12B        -7.2010    34.7560    -8.8190 h1         1 0U6       0.039700
     51 H14         -6.8790    35.8160    -6.3370 ha         1 0U6       0.207000
     52 H15         -7.2060    34.0470    -3.8640 ha         1 0U6       0.208000
     53 H20         -9.9380    37.5480    -3.1400 h1         1 0U6       0.096700
     54 H26         -9.9850    34.7190     1.5060 ha         1 0U6       0.116000
     55 H27        -11.0240    36.7010     2.5780 ha         1 0U6       0.116000
     56 H28        -11.6240    38.6720     1.2020 ha         1 0U6       0.115000
     57 H29        -11.2270    38.6520    -1.2410 ha         1 0U6       0.120000
     58 H31         -5.6620    32.7550    -4.4550 ha         1 0U6       0.132000
     59 HN35        -8.3900    27.5020    -3.0030 hn         1 0U6       0.482500
     60 HN3A        -7.9710    28.2530    -1.5240 hn         1 0U6       0.482500
     61 H37        -14.4530    36.7250    -4.3790 hc         1 0U6       0.042867
     62 H37A       -13.5730    36.1740    -5.7940 hc         1 0U6       0.042867
     63 H37B       -13.6850    35.1260    -4.3670 hc         1 0U6       0.042867
     64 H38         -4.6380    29.2590    -6.8910 hc         1 0U6       0.053200
     65 H38A        -5.8760    28.0210    -6.7200 hc         1 0U6       0.053200
     66 H39         -6.5570    29.7290    -8.4000 hc         1 0U6       0.041033
     67 H39A        -7.6610    29.7500    -7.0190 hc         1 0U6       0.041033
     68 H39B        -6.4280    31.0050    -7.1830 hc         1 0U6       0.041033
     69 H21        -11.7550    35.0650    -3.1270 ha         1 0U6       0.177000
     70 H23        -12.9140    38.8400    -4.1660 hc         1 0U6       0.042867
     71 H23A       -11.1620    38.6320    -4.2520 hc         1 0U6       0.042867
     72 H33        -12.1750    38.3040    -5.6650 hc         1 0U6       0.042867
     73 H19         -9.1550    33.5620    -0.5770 h4         1 0U6       0.038800
@<TRIPOS>BOND
     1     1     2 1   
     2     1    40 1   
     3     1    41 1   
     4     2     3 ar  
     5     2    36 ar  
     6     3     4 1   
     7     3    32 ar  
     8     4     5 1   
     9     4    42 1   
    10     4    43 1   
    11     5     6 ar  
    12     5    31 ar  
    13     6     7 ar  
    14     6    44 1   
    15     7     8 1   
    16     7    10 ar  
    17     8     9 1   
    18     9    45 1   
    19     9    46 1   
    20     9    47 1   
    21    10    11 1   
    22    10    13 ar  
    23    11    12 1   
    24    12    48 1   
    25    12    49 1   
    26    12    50 1   
    27    13    14 1   
    28    13    31 ar  
    29    14    15 2   
    30    14    51 1   
    31    15    16 1   
    32    15    52 1   
    33    16    17 1   
    34    16    30 2   
    35    17    18 1   
    36    17    20 1   
    37    18    19 2   
    38    19    25 1   
    39    19    73 1   
    40    20    21 1   
    41    20    24 1   
    42    20    53 1   
    43    21    22 2   
    44    21    69 1   
    45    22    23 1   
    46    22    37 1   
    47    23    70 1   
    48    23    71 1   
    49    23    72 1   
    50    24    25 ar  
    51    24    29 ar  
    52    25    26 ar  
    53    26    27 ar  
    54    26    54 1   
    55    27    28 ar  
    56    27    55 1   
    57    28    29 ar  
    58    28    56 1   
    59    29    57 1   
    60    31    58 1   
    61    32    33 ar  
    62    32    38 1   
    63    33    34 ar  
    64    34    35 1   
    65    34    36 ar  
    66    35    59 1   
    67    35    60 1   
    68    37    61 1   
    69    37    62 1   
    70    37    63 1   
    71    38    39 1   
    72    38    64 1   
    73    38    65 1   
    74    39    66 1   
    75    39    67 1   
    76    39    68 1   
@<TRIPOS>SUBSTRUCTURE
     1 0U6         1 TEMP              0 ****  ****    0 ROOT
