@<TRIPOS>MOLECULE
0U7
   30    32     1     0     0
SMALL
abcg2


@<TRIPOS>ATOM
      1 C7          -4.3330     0.4960    -0.0510 ca         1 0U7      -0.340500
      2 C8          -4.3680     1.8800     0.0690 ca         1 0U7       0.016000
      3 O4          -6.9360     0.4800    -0.4720 o          1 0U7      -0.532000
      4 O5          -5.6590    -1.6560    -0.7980 o          1 0U7      -0.532000
      5 S3          -5.8450    -0.3930    -0.1400 sy         1 0U7       1.343400
      6 C9          -3.1670     2.5640     0.1370 ca         1 0U7      -0.134000
      7 C10         -1.9630     1.8800     0.0890 ca         1 0U7      -0.015000
      8 C11         -1.9480     0.4910    -0.0320 ca         1 0U7      -0.156500
      9 C12         -3.1460    -0.2120    -0.1050 ca         1 0U7       0.041000
     10 C13         -0.7020    -0.2520    -0.0850 cc         1 0U7       0.474500
     11 O14          0.4700     0.3950    -0.0210 os         1 0U7      -0.274000
     12 C15          1.3760    -0.5900    -0.0930 cc         1 0U7       0.477500
     13 N16          0.8100    -1.7440    -0.1930 nd         1 0U7      -0.343000
     14 N17         -0.5320    -1.5250    -0.1870 nd         1 0U7      -0.344000
     15 C19          2.7950    -0.2800    -0.0540 ca         1 0U7      -0.124500
     16 C20          3.7070    -1.3310    -0.1170 ca         1 0U7      -0.064000
     17 C21          5.0580    -1.0420    -0.0830 ca         1 0U7       0.115500
     18 C22          5.5240     0.2620     0.0120 ca         1 0U7      -0.075000
     19 C23          4.5930     1.2860     0.0720 ca         1 0U7       0.115500
     20 C24          3.2320     1.0380     0.0410 ca         1 0U7      -0.064000
     21 CL1          6.2000    -2.3340    -0.1580 cl         1 0U7      -0.175500
     22 CL2          5.1490     2.9160     0.1870 cl         1 0U7      -0.175500
     23 H1          -5.3030     2.4210     0.1040 ha         1 0U7       0.146000
     24 H4          -3.1690     3.6410     0.2250 ha         1 0U7       0.130000
     25 H5          -1.0390     2.4400     0.1450 ha         1 0U7       0.133000
     26 H6          -3.1360    -1.2900    -0.2050 ha         1 0U7       0.165000
     27 H7           3.3640    -2.3530    -0.1910 ha         1 0U7       0.152000
     28 H8           6.5840     0.4710     0.0370 ha         1 0U7       0.150000
     29 H9           2.5340     1.8620     0.0890 ha         1 0U7       0.152000
     30 F1          -6.0250    -0.7400     1.4110 f          1 0U7      -0.260900
@<TRIPOS>BOND
     1     1     2 ar  
     2     1     5 1   
     3     1     9 ar  
     4     2     6 ar  
     5     2    23 1   
     6     3     5 2   
     7     4     5 2   
     8     5    30 1   
     9     6     7 ar  
    10     6    24 1   
    11     7     8 ar  
    12     7    25 1   
    13     8     9 ar  
    14     8    10 1   
    15     9    26 1   
    16    10    11 1   
    17    10    14 2   
    18    11    12 1   
    19    12    13 2   
    20    12    15 1   
    21    13    14 1   
    22    15    16 ar  
    23    15    20 ar  
    24    16    17 ar  
    25    16    27 1   
    26    17    18 ar  
    27    17    21 1   
    28    18    19 ar  
    29    18    28 1   
    30    19    20 ar  
    31    19    22 1   
    32    20    29 1   
@<TRIPOS>SUBSTRUCTURE
     1 0U7         1 TEMP              0 ****  ****    0 ROOT
