@<TRIPOS>MOLECULE
0U7
   30    32     1     0     0
SMALL
No Charge or Current Charge


@<TRIPOS>ATOM
      1 C7          -4.4050     0.4950    -0.0510 ca         1 0U7      -0.340500
      2 C8          -4.3950     1.8990     0.0680 ca         1 0U7       0.016000
      3 O4          -7.0490     0.5150    -0.5640 o          1 0U7      -0.532000
      4 O5          -5.7720    -1.7190    -0.7440 o          1 0U7      -0.532000
      5 S3          -5.9780    -0.3960    -0.1330 sy         1 0U7       1.343400
      6 C9          -3.1710     2.5830     0.1340 ca         1 0U7      -0.134000
      7 C10         -1.9580     1.8760     0.0840 ca         1 0U7      -0.015000
      8 C11         -1.9550     0.4680    -0.0330 ca         1 0U7      -0.156500
      9 C12         -3.1870    -0.2180    -0.1000 ca         1 0U7       0.041000
     10 C13         -0.6910    -0.2750    -0.0840 cc         1 0U7       0.474500
     11 O14          0.4840     0.3990    -0.0200 os         1 0U7      -0.274000
     12 C15          1.3860    -0.6110    -0.0950 cc         1 0U7       0.477500
     13 N16          0.8220    -1.8050    -0.1960 nd         1 0U7      -0.343000
     14 N17         -0.5330    -1.5860    -0.1890 nd         1 0U7      -0.344000
     15 C19          2.8210    -0.3030    -0.0580 ca         1 0U7      -0.124500
     16 C20          3.7800    -1.3390    -0.1350 ca         1 0U7      -0.064000
     17 C21          5.1540    -1.0450    -0.1010 ca         1 0U7       0.115500
     18 C22          5.5910     0.2830     0.0110 ca         1 0U7      -0.075000
     19 C23          4.6490     1.3200     0.0880 ca         1 0U7       0.115500
     20 C24          3.2740     1.0330     0.0540 ca         1 0U7      -0.064000
     21 Cl1          6.3310    -2.3490    -0.1970 cl         1 0U7      -0.175500
     22 Cl2          5.1930     2.9870     0.2280 cl         1 0U7      -0.175500
     23 H1          -5.3260     2.4660     0.1100 ha         1 0U7       0.146000
     24 H4          -3.1620     3.6660     0.2250 ha         1 0U7       0.130000
     25 H5          -1.0240     2.4310     0.1380 ha         1 0U7       0.133000
     26 H6          -3.1960    -1.3050    -0.1880 ha         1 0U7       0.165000
     27 H7           3.4660    -2.3770    -0.2220 ha         1 0U7       0.152000
     28 H8           6.6530     0.5070     0.0380 ha         1 0U7       0.150000
     29 H9           2.5660     1.8570     0.1150 ha         1 0U7       0.152000
     30 F1          -6.2400    -0.6740     1.4510 f          1 0U7      -0.260900
@<TRIPOS>BOND
     1     1     2 ar  
     2     1     5 1   
     3     1     9 ar  
     4     2     6 ar  
     5     2    23 1   
     6     3     5 2   
     7     4     5 2   
     8     5    30 1   
     9     6     7 ar  
    10     6    24 1   
    11     7     8 ar  
    12     7    25 1   
    13     8     9 ar  
    14     8    10 1   
    15     9    26 1   
    16    10    11 1   
    17    10    14 2   
    18    11    12 1   
    19    12    13 2   
    20    12    15 1   
    21    13    14 1   
    22    15    16 ar  
    23    15    20 ar  
    24    16    17 ar  
    25    16    27 1   
    26    17    18 ar  
    27    17    21 1   
    28    18    19 ar  
    29    18    28 1   
    30    19    20 ar  
    31    19    22 1   
    32    20    29 1   
@<TRIPOS>SUBSTRUCTURE
     1 0U7         1 TEMP              0 ****  ****    0 ROOT
