@<TRIPOS>MOLECULE
0U8
   42    44     1     0     0
SMALL
No Charge or Current Charge


@<TRIPOS>ATOM
      1 O1           2.7370     2.5620    -1.8880 oh         1 0U8      -0.691500
      2 C1           3.2860     1.6310    -0.9220 c3         1 0U8       0.162100
      3 C2           2.2000     0.7860    -0.1600 c5         1 0U8       0.413000
      4 O6           1.3030     1.7150     0.5520 os         1 0U8      -0.446500
      5 C6           0.0740     1.3000     1.2050 c3         1 0U8       0.160100
      6 C5          -1.1590     1.4770     0.2540 c5         1 0U8       0.151800
      7 O5          -1.1950     0.4920    -0.7990 os         1 0U8      -0.432500
      8 C8          -1.8860    -0.6920    -0.3360 c5         1 0U8       0.413000
      9 C7          -2.8710    -1.1710    -1.4640 c3         1 0U8       0.162100
     10 O7          -3.9540    -0.2360    -1.6920 oh         1 0U8      -0.691500
     11 O2          -0.9010    -1.7270    -0.0320 os         1 0U8      -0.446500
     12 C9           0.0880    -2.0990    -1.0290 c3         1 0U8       0.160100
     13 C10          1.4570    -1.4170    -0.7170 c5         1 0U8       0.151800
     14 O8           1.4430    -0.0120    -1.1020 os         1 0U8      -0.432500
     15 C4           1.9200    -1.4880     0.7760 c5         1 0U8       0.102300
     16 O4           2.6090    -2.7040     1.1130 oh         1 0U8      -0.700000
     17 C3           2.8780    -0.2680     0.8150 c5         1 0U8       0.092800
     18 O3           3.2030     0.1820     2.1460 oh         1 0U8      -0.689500
     19 C12         -2.6240    -0.2850     1.0260 c5         1 0U8       0.092800
     20 O10         -1.9880    -0.7360     2.2460 oh         1 0U8      -0.689500
     21 C11         -2.5650     1.2810     0.9180 c5         1 0U8       0.102300
     22 O9          -3.6180     1.8000     0.0870 oh         1 0U8      -0.700000
     23 H1           3.4960     3.0430    -2.2900 ho         1 0U8       0.499500
     24 H2           3.9690     0.9340    -1.4280 h1         1 0U8       0.030450
     25 H3           3.8800     2.1730    -0.1740 h1         1 0U8       0.030450
     26 H4           0.1310     0.2930     1.6030 h1         1 0U8       0.056700
     27 H5          -0.1000     1.9560     2.0680 h1         1 0U8       0.056700
     28 H6          -1.0810     2.4750    -0.1980 h1         1 0U8       0.087200
     29 H7          -2.3080    -1.3170    -2.3940 h1         1 0U8       0.030450
     30 H8          -3.2790    -2.1470    -1.1700 h1         1 0U8       0.030450
     31 H9          -4.4940    -0.6000    -2.4340 ho         1 0U8       0.499500
     32 H10          0.2420    -3.1850    -1.0010 h1         1 0U8       0.056700
     33 H11         -0.2260    -1.8380    -2.0470 h1         1 0U8       0.056700
     34 H12          2.2110    -1.9070    -1.3480 h1         1 0U8       0.087200
     35 H13          1.0790    -1.3660     1.4650 h1         1 0U8       0.062200
     36 H14          1.9260    -3.3900     1.3040 ho         1 0U8       0.504000
     37 H15          3.8180    -0.5810     0.3380 h1         1 0U8       0.050700
     38 H16          3.4840    -0.6200     2.6460 ho         1 0U8       0.500500
     39 H17         -3.6660    -0.6340     1.0140 h1         1 0U8       0.050700
     40 H18         -2.6830    -0.7790     2.9430 ho         1 0U8       0.500500
     41 H19         -2.6030     1.7580     1.9080 h1         1 0U8       0.062200
     42 H20         -3.7400     1.1380    -0.6510 ho         1 0U8       0.504000
@<TRIPOS>BOND
     1     1     2 1   
     2     1    23 1   
     3     2     3 1   
     4     2    24 1   
     5     2    25 1   
     6     3     4 1   
     7     3    14 1   
     8     3    17 1   
     9     4     5 1   
    10     5     6 1   
    11     5    26 1   
    12     5    27 1   
    13     6     7 1   
    14     6    21 1   
    15     6    28 1   
    16     7     8 1   
    17     8     9 1   
    18     8    11 1   
    19     8    19 1   
    20     9    10 1   
    21     9    29 1   
    22     9    30 1   
    23    10    31 1   
    24    11    12 1   
    25    12    13 1   
    26    12    32 1   
    27    12    33 1   
    28    13    14 1   
    29    13    15 1   
    30    13    34 1   
    31    15    16 1   
    32    15    17 1   
    33    15    35 1   
    34    16    36 1   
    35    17    18 1   
    36    17    37 1   
    37    18    38 1   
    38    19    20 1   
    39    19    21 1   
    40    19    39 1   
    41    20    40 1   
    42    21    22 1   
    43    21    41 1   
    44    22    42 1   
@<TRIPOS>SUBSTRUCTURE
     1 0U8         1 TEMP              0 ****  ****    0 ROOT
