@<TRIPOS>MOLECULE
0U8
   42    44     1     0     0
SMALL
bcc


@<TRIPOS>ATOM
      1 O1           2.7550     2.4290    -1.7340 oh         1 0U8      -0.569300
      2 C1           3.2720     1.5360    -0.7840 c3         1 0U8       0.138900
      3 C2           2.1380     0.7470    -0.1400 c5         1 0U8       0.366600
      4 O6           1.2670     1.6940     0.3820 os         1 0U8      -0.400100
      5 C6           0.0820     1.2910     1.0360 c3         1 0U8       0.136900
      6 C5          -1.1600     1.4270     0.1610 c5         1 0U8       0.128600
      7 O5          -1.2500     0.5060    -0.9120 os         1 0U8      -0.386100
      8 C8          -1.8440    -0.6880    -0.4960 c5         1 0U8       0.366600
      9 C7          -2.7580    -1.1940    -1.6110 c3         1 0U8       0.138900
     10 O7          -3.7460    -0.2310    -1.8700 oh         1 0U8      -0.569300
     11 O2          -0.9050    -1.6700    -0.1720 os         1 0U8      -0.400100
     12 C9           0.1070    -2.0180    -1.0950 c3         1 0U8       0.136900
     13 C10          1.4620    -1.4180    -0.7630 c5         1 0U8       0.128600
     14 O8           1.5000    -0.0460    -1.1030 os         1 0U8      -0.386100
     15 C4           1.8780    -1.5190     0.7030 c5         1 0U8       0.079100
     16 O4           2.5820    -2.7210     0.9040 oh         1 0U8      -0.577800
     17 C3           2.7130    -0.2530     0.8900 c5         1 0U8       0.069600
     18 O3           2.7120     0.3090     2.1710 oh         1 0U8      -0.567300
     19 C12         -2.6330    -0.3410     0.8060 c5         1 0U8       0.069600
     20 O10         -2.1170    -1.0640     1.8910 oh         1 0U8      -0.567300
     21 C11         -2.4310     1.1780     0.9640 c5         1 0U8       0.079100
     22 O9          -3.4610     1.9400     0.3910 oh         1 0U8      -0.577800
     23 H1           3.4970     2.8460    -2.1800 ho         1 0U8       0.400500
     24 H2           3.9600     0.8120    -1.2390 h1         1 0U8       0.030450
     25 H3           3.8310     2.0520     0.0090 h1         1 0U8       0.030450
     26 H4           0.1490     0.2950     1.4730 h1         1 0U8       0.056700
     27 H5          -0.0460     1.9810     1.8750 h1         1 0U8       0.056700
     28 H6          -1.1620     2.4310    -0.2760 h1         1 0U8       0.087200
     29 H7          -2.1680    -1.4090    -2.5120 h1         1 0U8       0.030450
     30 H8          -3.1860    -2.1460    -1.2760 h1         1 0U8       0.030450
     31 H9          -4.4320    -0.6480    -2.3980 ho         1 0U8       0.400500
     32 H10          0.2090    -3.1060    -1.0570 h1         1 0U8       0.056700
     33 H11         -0.1470    -1.7620    -2.1280 h1         1 0U8       0.056700
     34 H12          2.1990    -1.9620    -1.3710 h1         1 0U8       0.087200
     35 H13          0.9980    -1.4810     1.3550 h1         1 0U8       0.062200
     36 H14          2.5760    -2.9260     1.8430 ho         1 0U8       0.405000
     37 H15          3.7380    -0.5000     0.5730 h1         1 0U8       0.050700
     38 H16          3.2840    -0.2190     2.7360 ho         1 0U8       0.401500
     39 H17         -3.6990    -0.5620     0.6640 h1         1 0U8       0.050700
     40 H18         -2.6700    -0.8680     2.6540 ho         1 0U8       0.401500
     41 H19         -2.2990     1.4280     2.0270 h1         1 0U8       0.062200
     42 H20         -4.3010     1.6490     0.7600 ho         1 0U8       0.405000
@<TRIPOS>BOND
     1     1     2 1   
     2     1    23 1   
     3     2     3 1   
     4     2    24 1   
     5     2    25 1   
     6     3     4 1   
     7     3    14 1   
     8     3    17 1   
     9     4     5 1   
    10     5     6 1   
    11     5    26 1   
    12     5    27 1   
    13     6     7 1   
    14     6    21 1   
    15     6    28 1   
    16     7     8 1   
    17     8     9 1   
    18     8    11 1   
    19     8    19 1   
    20     9    10 1   
    21     9    29 1   
    22     9    30 1   
    23    10    31 1   
    24    11    12 1   
    25    12    13 1   
    26    12    32 1   
    27    12    33 1   
    28    13    14 1   
    29    13    15 1   
    30    13    34 1   
    31    15    16 1   
    32    15    17 1   
    33    15    35 1   
    34    16    36 1   
    35    17    18 1   
    36    17    37 1   
    37    18    38 1   
    38    19    20 1   
    39    19    21 1   
    40    19    39 1   
    41    20    40 1   
    42    21    22 1   
    43    21    41 1   
    44    22    42 1   
@<TRIPOS>SUBSTRUCTURE
     1 0U8         1 TEMP              0 ****  ****    0 ROOT
