@<TRIPOS>MOLECULE
0U9
   43    44     1     0     0
SMALL
No Charge or Current Charge


@<TRIPOS>ATOM
      1 F1           4.9770    -0.9840    -2.8740 f          1 0U9      -0.105667
      2 C2           5.5310    -0.0090    -2.1160 c3         1 0U9       0.359300
      3 F3           6.7140    -0.4970    -1.6760 f          1 0U9      -0.105667
      4 F4           5.8080     1.0130    -2.9570 f          1 0U9      -0.105667
      5 C5           4.6250     0.4390    -0.9470 ca         1 0U9      -0.132300
      6 C6           3.3560    -0.1640    -0.7600 ca         1 0U9      -0.128000
      7 C7           5.0320     1.4540    -0.0380 ca         1 0U9       0.002000
      8 C8           6.3050     2.1230    -0.1490 cg         1 0U9       0.312000
      9 N9           7.3330     2.6710    -0.2290 n1         1 0U9      -0.420000
     10 C10          4.1780     1.8350     1.0140 ca         1 0U9      -0.050000
     11 C11          2.9260     1.2250     1.1810 ca         1 0U9      -0.121000
     12 C12          2.5040     0.2170     0.2920 ca         1 0U9       0.000000
     13 N13          1.2510    -0.4480     0.3930 ns         1 0U9      -0.141000
     14 C14          0.1890    -0.3330     1.2820 c          1 0U9       0.577100
     15 O15          0.1730     0.4540     2.2250 o          1 0U9      -0.566100
     16 C16         -1.0230    -1.3050     0.9860 c3         1 0U9       0.148000
     17 O17         -0.7660    -2.1230    -0.1740 oh         1 0U9      -0.655000
     18 C18         -1.1930    -2.2570     2.1980 c3         1 0U9      -0.096100
     19 C19         -2.2930    -0.4610     0.6790 c3         1 0U9      -0.335400
     20 S20         -3.8380    -1.3690     0.4720 sy         1 0U9       1.061500
     21 O21         -3.5620    -2.4280    -0.5070 o          1 0U9      -0.514000
     22 O22         -4.3350    -1.6820     1.8170 o          1 0U9      -0.514000
     23 C23         -4.9290    -0.1480    -0.2790 ca         1 0U9      -0.295500
     24 C24         -4.9900    -0.0270    -1.6840 ca         1 0U9       0.013000
     25 C25         -5.7110     0.6960     0.5370 ca         1 0U9       0.013000
     26 C26         -6.5540     1.6530    -0.0540 ca         1 0U9      -0.172500
     27 C27         -6.6140     1.7680    -1.4500 ca         1 0U9       0.233000
     28 F28         -7.4250     2.6900    -2.0140 f          1 0U9      -0.163000
     29 C29         -5.8360     0.9330    -2.2650 ca         1 0U9      -0.172500
     30 H1           3.0180    -0.9430    -1.4400 ha         1 0U9       0.136000
     31 H2           4.4870     2.6120     1.7120 ha         1 0U9       0.135000
     32 H3           2.3030     1.5530     2.0080 ha         1 0U9       0.158000
     33 H4           1.0930    -1.1470    -0.3230 hn         1 0U9       0.177000
     34 H5          -1.6240    -2.5250    -0.4500 ho         1 0U9       0.469000
     35 H6          -1.5210    -1.7030     3.0860 hc         1 0U9       0.067700
     36 H7          -1.9210    -3.0520     2.0000 hc         1 0U9       0.067700
     37 H8          -0.2390    -2.7420     2.4390 hc         1 0U9       0.067700
     38 H9          -2.4750     0.2580     1.4860 h1         1 0U9       0.113200
     39 H10         -2.1420     0.1030    -0.2490 h1         1 0U9       0.113200
     40 H11         -4.3880    -0.6690    -2.3260 ha         1 0U9       0.141500
     41 H12         -5.6710     0.6170     1.6230 ha         1 0U9       0.141500
     42 H13         -7.1600     2.3060     0.5680 ha         1 0U9       0.142500
     43 H14         -5.8890     1.0310    -3.3460 ha         1 0U9       0.142500
@<TRIPOS>BOND
     1     1     2 1   
     2     2     3 1   
     3     2     4 1   
     4     2     5 1   
     5     5     6 ar  
     6     5     7 ar  
     7     6    12 ar  
     8     6    30 1   
     9     7     8 1   
    10     7    10 ar  
    11     8     9 3   
    12    10    11 ar  
    13    10    31 1   
    14    11    12 ar  
    15    11    32 1   
    16    12    13 1   
    17    13    14 1   
    18    13    33 1   
    19    14    15 2   
    20    14    16 1   
    21    16    17 1   
    22    16    18 1   
    23    16    19 1   
    24    17    34 1   
    25    18    35 1   
    26    18    36 1   
    27    18    37 1   
    28    19    20 1   
    29    19    38 1   
    30    19    39 1   
    31    20    21 2   
    32    20    22 2   
    33    20    23 1   
    34    23    24 ar  
    35    23    25 ar  
    36    24    29 ar  
    37    24    40 1   
    38    25    26 ar  
    39    25    41 1   
    40    26    27 ar  
    41    26    42 1   
    42    27    28 1   
    43    27    29 ar  
    44    29    43 1   
@<TRIPOS>SUBSTRUCTURE
     1 0U9         1 TEMP              0 ****  ****    0 ROOT
