@<TRIPOS>MOLECULE
0U9
   43    44     1     0     0
SMALL
abcg2


@<TRIPOS>ATOM
      1 F1           5.5900    -1.8900    -1.6160 f          1 0U9      -0.105667
      2 C2           5.9490    -0.6700    -1.2230 c3         1 0U9       0.359300
      3 F3           6.9480    -0.8100    -0.3440 f          1 0U9      -0.105667
      4 F4           6.4530    -0.0380    -2.2890 f          1 0U9      -0.105667
      5 C5           4.8080     0.1010    -0.6240 ca         1 0U9      -0.132300
      6 C6           3.5560    -0.4610    -0.5330 ca         1 0U9      -0.128000
      7 C7           5.0250     1.4010    -0.1480 ca         1 0U9       0.002000
      8 C8           6.3010     2.0310    -0.2170 cg         1 0U9       0.312000
      9 N9           7.3190     2.5700    -0.2590 n1         1 0U9      -0.420000
     10 C10          3.9630     2.1030     0.4100 ca         1 0U9      -0.050000
     11 C11          2.7030     1.5420     0.5050 ca         1 0U9      -0.121000
     12 C12          2.4880     0.2480     0.0340 ca         1 0U9       0.000000
     13 N13          1.2710    -0.4130     0.0860 ns         1 0U9      -0.141000
     14 C14          0.1060    -0.0050     0.6470 c          1 0U9       0.577100
     15 O15         -0.0760     1.0710     1.1780 o          1 0U9      -0.566100
     16 C16         -1.0040    -1.0800     0.6220 c3         1 0U9       0.148000
     17 O17         -0.7220    -2.1030    -0.2960 oh         1 0U9      -0.655000
     18 C18         -1.0120    -1.7100     2.0140 c3         1 0U9      -0.096100
     19 C19         -2.3100    -0.3410     0.2890 c3         1 0U9      -0.335400
     20 S20         -3.7100    -1.4130    -0.0720 sy         1 0U9       1.061500
     21 O21         -3.4840    -2.0690    -1.3580 o          1 0U9      -0.514000
     22 O22         -4.0160    -2.2350     1.0960 o          1 0U9      -0.514000
     23 C23         -5.0190    -0.2380    -0.2790 ca         1 0U9      -0.295500
     24 C24         -5.2570     0.3020    -1.5360 ca         1 0U9       0.013000
     25 C25         -5.7850     0.1250     0.8220 ca         1 0U9       0.013000
     26 C26         -6.8070     1.0450     0.6640 ca         1 0U9      -0.172500
     27 C27         -7.0320     1.5770    -0.5940 ca         1 0U9       0.233000
     28 F28         -8.0170     2.4640    -0.7470 f          1 0U9      -0.163000
     29 C29         -6.2770     1.2240    -1.6980 ca         1 0U9      -0.172500
     30 H1           3.3800    -1.4640    -0.8980 ha         1 0U9       0.136000
     31 H2           4.1240     3.1060     0.7790 ha         1 0U9       0.135000
     32 H3           1.9060     2.1190     0.9450 ha         1 0U9       0.158000
     33 H4           1.2520    -1.3400    -0.3170 hn         1 0U9       0.177000
     34 H5          -0.9130    -1.8120    -1.1960 ho         1 0U9       0.469000
     35 H6          -1.2390    -0.9640     2.7720 hc         1 0U9       0.067700
     36 H7          -1.7510    -2.5050     2.0780 hc         1 0U9       0.067700
     37 H8          -0.0340    -2.1360     2.2390 hc         1 0U9       0.067700
     38 H9          -2.6100     0.3070     1.1130 h1         1 0U9       0.113200
     39 H10         -2.1990     0.2860    -0.6010 h1         1 0U9       0.113200
     40 H11         -4.6610     0.0130    -2.3910 ha         1 0U9       0.141500
     41 H12         -5.5990    -0.3010     1.7980 ha         1 0U9       0.141500
     42 H13         -7.4210     1.3400     1.5040 ha         1 0U9       0.142500
     43 H14         -6.4820     1.6590    -2.6670 ha         1 0U9       0.142500
@<TRIPOS>BOND
     1     1     2 1   
     2     2     3 1   
     3     2     4 1   
     4     2     5 1   
     5     5     6 ar  
     6     5     7 ar  
     7     6    12 ar  
     8     6    30 1   
     9     7     8 1   
    10     7    10 ar  
    11     8     9 3   
    12    10    11 ar  
    13    10    31 1   
    14    11    12 ar  
    15    11    32 1   
    16    12    13 1   
    17    13    14 1   
    18    13    33 1   
    19    14    15 2   
    20    14    16 1   
    21    16    17 1   
    22    16    18 1   
    23    16    19 1   
    24    17    34 1   
    25    18    35 1   
    26    18    36 1   
    27    18    37 1   
    28    19    20 1   
    29    19    38 1   
    30    19    39 1   
    31    20    21 2   
    32    20    22 2   
    33    20    23 1   
    34    23    24 ar  
    35    23    25 ar  
    36    24    29 ar  
    37    24    40 1   
    38    25    26 ar  
    39    25    41 1   
    40    26    27 ar  
    41    26    42 1   
    42    27    28 1   
    43    27    29 ar  
    44    29    43 1   
@<TRIPOS>SUBSTRUCTURE
     1 0U9         1 TEMP              0 ****  ****    0 ROOT
