@<TRIPOS>MOLECULE
0UA
   31    33     1     0     0
SMALL
bcc


@<TRIPOS>ATOM
      1 O1           6.5950    -0.3460     0.0690 oh         1 0UA      -0.459100
      2 C2           5.2820    -0.1580     0.0570 ca         1 0UA       0.190100
      3 C3           4.7970     1.1510    -0.0260 ca         1 0UA      -0.056600
      4 C4           3.4470     1.4220    -0.0420 ca         1 0UA      -0.034500
      5 C5           2.5280     0.3750     0.0250 ca         1 0UA      -0.174500
      6 C6           2.9820    -0.9380     0.1100 ca         1 0UA      -0.034500
      7 C7           4.3400    -1.1870     0.1240 ca         1 0UA      -0.056600
      8 CL9          5.9370     2.4390    -0.1070 cl         1 0UA      -0.077900
      9 C10          1.1130     0.6790     0.0060 cc         1 0UA       0.534900
     10 O11          0.2110    -0.3120     0.0710 os         1 0UA      -0.366800
     11 N14          0.5380     1.8320    -0.0690 nd         1 0UA      -0.350000
     12 N13         -0.8040     1.6040    -0.0540 nd         1 0UA      -0.342000
     13 C12         -0.9650     0.3290     0.0290 cc         1 0UA       0.514900
     14 C15         -2.2060    -0.4220     0.0820 ca         1 0UA      -0.155500
     15 C16         -2.2140    -1.8100     0.2010 ca         1 0UA      -0.034000
     16 C17         -3.4150    -2.5010     0.2580 ca         1 0UA      -0.152000
     17 C18         -4.6200    -1.8230     0.1990 ca         1 0UA      -0.003000
     18 C20         -3.4100     0.2760     0.0160 ca         1 0UA       0.022000
     19 C19         -4.5920    -0.4390     0.0750 ca         1 0UA      -0.341500
     20 S21         -6.1100     0.4360    -0.0160 sy         1 0UA       1.484000
     21 O23         -7.1640    -0.2930     0.6340 o          1 0UA      -0.602300
     22 O22         -5.9110     1.8410     0.2120 o          1 0UA      -0.602300
     23 H1           6.8180    -1.2850     0.1330 ho         1 0UA       0.449000
     24 H2           3.1060     2.4460    -0.1080 ha         1 0UA       0.170000
     25 H3           2.2940    -1.7700     0.1630 ha         1 0UA       0.170000
     26 H4          -1.2870    -2.3650     0.2560 ha         1 0UA       0.150000
     27 H5          -3.4100    -3.5780     0.3540 ha         1 0UA       0.148000
     28 H6          -5.5520    -2.3690     0.2530 ha         1 0UA       0.162000
     29 H7          -3.4060     1.3530    -0.0750 ha         1 0UA       0.185000
     30 F1          -6.3940     0.2890    -1.5830 f          1 0UA      -0.261900
     31 CL8          4.9150    -2.8140     0.2280 cl         1 0UA      -0.077900
@<TRIPOS>BOND
     1     1     2 1   
     2     1    23 1   
     3     2     3 ar  
     4     2     7 ar  
     5     3     4 ar  
     6     3     8 1   
     7     4     5 ar  
     8     4    24 1   
     9     5     6 ar  
    10     5     9 1   
    11     6     7 ar  
    12     6    25 1   
    13     7    31 1   
    14     9    10 1   
    15     9    11 2   
    16    10    13 1   
    17    11    12 1   
    18    12    13 2   
    19    13    14 1   
    20    14    15 ar  
    21    14    18 ar  
    22    15    16 ar  
    23    15    26 1   
    24    16    17 ar  
    25    16    27 1   
    26    17    19 ar  
    27    17    28 1   
    28    18    19 ar  
    29    18    29 1   
    30    19    20 1   
    31    20    21 2   
    32    20    22 2   
    33    20    30 1   
@<TRIPOS>SUBSTRUCTURE
     1 0UA         1 TEMP              0 ****  ****    0 ROOT
