@<TRIPOS>MOLECULE
0UA
   31    33     1     0     0
SMALL
No Charge or Current Charge


@<TRIPOS>ATOM
      1 O1           6.6830    -0.4290     0.0920 oh         1 0UA      -0.498100
      2 C2           5.3380    -0.1550     0.0670 ca         1 0UA       0.190100
      3 C3           4.8830     1.1750    -0.0470 ca         1 0UA       0.035000
      4 C4           3.5050     1.4520    -0.0720 ca         1 0UA      -0.016500
      5 C5           2.5580     0.4070     0.0150 ca         1 0UA      -0.174500
      6 C6           3.0200    -0.9240     0.1290 ca         1 0UA      -0.016500
      7 C7           4.3980    -1.2030     0.1550 ca         1 0UA       0.035000
      8 Cl9          6.0240     2.5180    -0.1600 cl         1 0UA      -0.169500
      9 C10          1.1210     0.7030    -0.0120 cc         1 0UA       0.490500
     10 O11          0.2290    -0.3140     0.0740 os         1 0UA      -0.278000
     11 N14          0.5470     1.8910    -0.1140 nd         1 0UA      -0.350000
     12 N13         -0.8050     1.6610    -0.0960 nd         1 0UA      -0.342000
     13 C12         -0.9520     0.3500     0.0160 cc         1 0UA       0.470500
     14 C15         -2.2090    -0.4040     0.0780 ca         1 0UA      -0.155500
     15 C16         -2.2000    -1.8110     0.1950 ca         1 0UA      -0.016000
     16 C17         -3.4070    -2.5280     0.2530 ca         1 0UA      -0.134000
     17 C18         -4.6370    -1.8550     0.1950 ca         1 0UA       0.015000
     18 C20         -3.4480     0.2730     0.0200 ca         1 0UA       0.040000
     19 C19         -4.6600    -0.4500     0.0800 ca         1 0UA      -0.341500
     20 S21         -6.2400     0.4280     0.0000 sy         1 0UA       1.342400
     21 O23         -7.3080    -0.4100     0.5690 o          1 0UA      -0.531500
     22 O22         -6.0500     1.8350     0.3840 o          1 0UA      -0.531500
     23 H1           6.7940    -1.4000     0.1750 ho         1 0UA       0.488000
     24 H2           3.1780     2.4860    -0.1610 ha         1 0UA       0.152000
     25 H3           2.3170    -1.7520     0.1990 ha         1 0UA       0.152000
     26 H4          -1.2610    -2.3590     0.2420 ha         1 0UA       0.132000
     27 H5          -3.3880    -3.6120     0.3420 ha         1 0UA       0.130000
     28 H6          -5.5630    -2.4290     0.2390 ha         1 0UA       0.144000
     29 H7          -3.4660     1.3600    -0.0720 ha         1 0UA       0.167000
     30 F1          -6.4900     0.4360    -1.6100 f          1 0UA      -0.261900
     31 Cl8          4.9300    -2.8790     0.2990 cl         1 0UA      -0.169500
@<TRIPOS>BOND
     1     1     2 1   
     2     1    23 1   
     3     2     3 ar  
     4     2     7 ar  
     5     3     4 ar  
     6     3     8 1   
     7     4     5 ar  
     8     4    24 1   
     9     5     6 ar  
    10     5     9 1   
    11     6     7 ar  
    12     6    25 1   
    13     7    31 1   
    14     9    10 1   
    15     9    11 2   
    16    10    13 1   
    17    11    12 1   
    18    12    13 2   
    19    13    14 1   
    20    14    15 ar  
    21    14    18 ar  
    22    15    16 ar  
    23    15    26 1   
    24    16    17 ar  
    25    16    27 1   
    26    17    19 ar  
    27    17    28 1   
    28    18    19 ar  
    29    18    29 1   
    30    19    20 1   
    31    20    21 2   
    32    20    22 2   
    33    20    30 1   
@<TRIPOS>SUBSTRUCTURE
     1 0UA         1 TEMP              0 ****  ****    0 ROOT
