@<TRIPOS>MOLECULE
0UC
   31    33     1     0     0
SMALL
abcg2


@<TRIPOS>ATOM
      1 CL8         -5.0690    -2.2000     0.8720 cl         1 0UC      -0.169500
      2 C7          -4.4870    -0.6530     0.3680 ca         1 0UC       0.033500
      3 C2          -5.4200     0.3620     0.1440 ca         1 0UC       0.192100
      4 O1          -6.7290     0.2200     0.2900 oh         1 0UC      -0.498100
      5 C3          -4.9270     1.6080    -0.2610 ca         1 0UC       0.033500
      6 CL9         -6.0550     2.8780    -0.5430 cl         1 0UC      -0.169500
      7 C4          -3.5800     1.8300    -0.4360 ca         1 0UC      -0.015500
      8 C6          -3.1320    -0.4510     0.1980 ca         1 0UC      -0.015500
      9 C5          -2.6710     0.7970    -0.2070 ca         1 0UC      -0.176500
     10 C10         -1.2590     1.0480    -0.4010 cc         1 0UC       0.493500
     11 O11         -0.3680     0.0790    -0.1490 os         1 0UC      -0.258000
     12 N14         -0.6780     2.1260    -0.8080 nd         1 0UC      -0.353000
     13 N13          0.6570     1.8660    -0.8340 nd         1 0UC      -0.338000
     14 C12          0.8080     0.6480    -0.4410 cc         1 0UC       0.461500
     15 C15          2.0730    -0.0500    -0.2550 ca         1 0UC      -0.127500
     16 C16          2.2670    -1.4270    -0.4140 ca         1 0UC       0.061100
     17 C17          3.5170    -1.9980    -0.2070 ca         1 0UC      -0.113000
     18 C18          4.5960    -1.2100     0.1410 ca         1 0UC       0.015000
     19 C20          3.1680     0.7420     0.0850 ca         1 0UC       0.039000
     20 C19          4.4060     0.1590     0.2720 ca         1 0UC      -0.334500
     21 S21          5.7720     1.1780     0.6880 sy         1 0UC       1.346400
     22 O23          5.3320     2.4610     1.1600 o          1 0UC      -0.530000
     23 O22          6.7840     0.4220     1.3720 o          1 0UC      -0.530000
     24 BR1          0.8850    -2.5700    -0.9590 br         1 0UC      -0.045100
     25 H1          -6.9630    -0.6770     0.5660 ho         1 0UC       0.489000
     26 H2          -3.2330     2.8040    -0.7510 ha         1 0UC       0.153500
     27 H3          -2.4510    -1.2710     0.3820 ha         1 0UC       0.153500
     28 H4           3.6590    -3.0630    -0.3250 ha         1 0UC       0.144000
     29 H5           5.5620    -1.6690     0.3040 ha         1 0UC       0.149000
     30 H6           3.0280     1.8060     0.2120 ha         1 0UC       0.167000
     31 F1           6.3460     1.4320    -0.7810 f          1 0UC      -0.258900
@<TRIPOS>BOND
     1     1     2 1   
     2     2     3 ar  
     3     2     8 ar  
     4     3     4 1   
     5     3     5 ar  
     6     4    25 1   
     7     5     6 1   
     8     5     7 ar  
     9     7     9 ar  
    10     7    26 1   
    11     8     9 ar  
    12     8    27 1   
    13     9    10 1   
    14    10    11 1   
    15    10    12 2   
    16    11    14 1   
    17    12    13 1   
    18    13    14 2   
    19    14    15 1   
    20    15    16 ar  
    21    15    19 ar  
    22    16    17 ar  
    23    16    24 1   
    24    17    18 ar  
    25    17    28 1   
    26    18    20 ar  
    27    18    29 1   
    28    19    20 ar  
    29    19    30 1   
    30    20    21 1   
    31    21    22 2   
    32    21    23 2   
    33    21    31 1   
@<TRIPOS>SUBSTRUCTURE
     1 0UC         1 TEMP              0 ****  ****    0 ROOT
