@<TRIPOS>MOLECULE
0UC
   31    33     1     0     0
SMALL
No Charge or Current Charge


@<TRIPOS>ATOM
      1 Cl8         -5.0340    -2.2400     1.0300 cl         1 0UC      -0.169500
      2 C7          -4.5150    -0.6600     0.4370 ca         1 0UC       0.033500
      3 C2          -5.4590     0.3520     0.1660 ca         1 0UC       0.192100
      4 O1          -6.7970     0.1200     0.3610 oh         1 0UC      -0.498100
      5 C3          -5.0140     1.6040    -0.3070 ca         1 0UC       0.033500
      6 Cl9         -6.1610     2.9000    -0.6610 cl         1 0UC      -0.169500
      7 C4          -3.6420     1.8390    -0.5060 ca         1 0UC      -0.015500
      8 C6          -3.1440    -0.4230     0.2380 ca         1 0UC      -0.015500
      9 C5          -2.6920     0.8300    -0.2350 ca         1 0UC      -0.176500
     10 C10         -1.2620     1.0800    -0.4480 cc         1 0UC       0.493500
     11 O11         -0.3660     0.1050    -0.1580 os         1 0UC      -0.258000
     12 N14         -0.6970     2.1850    -0.9050 nd         1 0UC      -0.353000
     13 N13          0.6530     1.9390    -0.9250 nd         1 0UC      -0.338000
     14 C12          0.8050     0.6890    -0.5120 cc         1 0UC       0.461500
     15 C15          2.0750    -0.0070    -0.2710 ca         1 0UC      -0.127500
     16 C16          2.2330    -1.4050    -0.4590 ca         1 0UC       0.061100
     17 C17          3.4830    -2.0100    -0.2440 ca         1 0UC      -0.113000
     18 C18          4.5940    -1.2450     0.1400 ca         1 0UC       0.015000
     19 C20          3.2070     0.7620     0.0830 ca         1 0UC       0.039000
     20 C19          4.4590     0.1480     0.3000 ca         1 0UC      -0.334500
     21 S21          5.8900     1.1500     0.7710 sy         1 0UC       1.346400
     22 O23          5.4380     2.4220     1.3570 o          1 0UC      -0.530000
     23 O22          6.9070     0.3010     1.4110 o          1 0UC      -0.530000
     24 Br1          0.8070    -2.5460    -1.0640 br         1 0UC      -0.045100
     25 H1          -6.9020    -0.7990     0.6900 ho         1 0UC       0.489000
     26 H2          -3.3230     2.8130    -0.8730 ha         1 0UC       0.153500
     27 H3          -2.4380    -1.2230     0.4550 ha         1 0UC       0.153500
     28 H4           3.5960    -3.0820    -0.3890 ha         1 0UC       0.144000
     29 H5           5.5530    -1.7380     0.2980 ha         1 0UC       0.149000
     30 H6           3.1050     1.8420     0.2020 ha         1 0UC       0.167000
     31 F1           6.4820     1.5240    -0.7000 f          1 0UC      -0.258900
@<TRIPOS>BOND
     1     1     2 1   
     2     2     3 ar  
     3     2     8 ar  
     4     3     4 1   
     5     3     5 ar  
     6     4    25 1   
     7     5     6 1   
     8     5     7 ar  
     9     7     9 ar  
    10     7    26 1   
    11     8     9 ar  
    12     8    27 1   
    13     9    10 1   
    14    10    11 1   
    15    10    12 2   
    16    11    14 1   
    17    12    13 1   
    18    13    14 2   
    19    14    15 1   
    20    15    16 ar  
    21    15    19 ar  
    22    16    17 ar  
    23    16    24 1   
    24    17    18 ar  
    25    17    28 1   
    26    18    20 ar  
    27    18    29 1   
    28    19    20 ar  
    29    19    30 1   
    30    20    21 1   
    31    21    22 2   
    32    21    23 2   
    33    21    31 1   
@<TRIPOS>SUBSTRUCTURE
     1 0UC         1 TEMP              0 ****  ****    0 ROOT
