@<TRIPOS>MOLECULE
0UD
   47    47     1     0     0
SMALL
No Charge or Current Charge


@<TRIPOS>ATOM
      1 C01         13.0100    30.9610    12.9760 c3         1 0UD      -0.083600
      2 C02         12.4480    29.8240    12.0930 c3         1 0UD      -0.013900
      3 C03         12.8070    30.0350    10.6050 c3         1 0UD      -0.083600
      4 C04         12.9080    28.4400    12.5980 ca         1 0UD      -0.058300
      5 C05         14.2920    28.1690    12.6200 ca         1 0UD      -0.109000
      6 C06         14.7790    26.9570    13.1190 ca         1 0UD      -0.102000
      7 C07         13.8910    25.9970    13.6160 ca         1 0UD      -0.109000
      8 C08         12.5000    26.2250    13.6120 ca         1 0UD      -0.058300
      9 C09         11.5970    25.1090    14.1800 c3         1 0UD      -0.013900
     10 C10         10.6940    24.4550    13.1080 c3         1 0UD      -0.083600
     11 C11         10.8050    25.5470    15.4350 c3         1 0UD      -0.083600
     12 C12         12.0020    27.4490    13.0790 ca         1 0UD      -0.030000
     13 C14          9.7560    27.8240    11.9780 c          1 0UD       0.669100
     14 C16          7.3860    28.2190    11.5240 c2         1 0UD       0.682800
     15 C18          4.9270    28.6520    11.6610 c3         1 0UD       0.223800
     16 C19          3.9020    28.9520    12.7660 c3         1 0UD      -0.107100
     17 N13         10.6030    27.6770    13.0600 ns         1 0UD      -0.187000
     18 N15          8.4610    28.0560    12.3450 ns         1 0UD      -0.505400
     19 N17          6.2690    28.4960    12.2410 nu         1 0UD      -0.914400
     20 N20          7.3650    28.0790    10.2710 n2         1 0UD      -0.862100
     21 O21         10.1170    27.7410    10.8130 o          1 0UD      -0.613100
     22 H1          12.7350    30.8020    14.0260 hc         1 0UD       0.036117
     23 H2          14.1030    31.0170    12.9120 hc         1 0UD       0.036117
     24 H3          12.6030    31.9300    12.6620 hc         1 0UD       0.036117
     25 H4          11.3610    29.9200    12.1610 hc         1 0UD       0.045700
     26 H5          12.3940    30.9820    10.2390 hc         1 0UD       0.036117
     27 H6          13.8930    30.0570    10.4550 hc         1 0UD       0.036117
     28 H7          12.3950    29.2250     9.9910 hc         1 0UD       0.036117
     29 H8          15.0020    28.9070    12.2550 ha         1 0UD       0.114500
     30 H9          15.8500    26.7650    13.1300 ha         1 0UD       0.115000
     31 H10         14.2950    25.0660    14.0090 ha         1 0UD       0.114500
     32 H11         12.2500    24.2990    14.5300 hc         1 0UD       0.045700
     33 H12         10.2270    23.5460    13.5070 hc         1 0UD       0.036117
     34 H13          9.8910    25.1250    12.7840 hc         1 0UD       0.036117
     35 H14         11.2850    24.1730    12.2290 hc         1 0UD       0.036117
     36 H15         11.4740    26.0150    16.1660 hc         1 0UD       0.036117
     37 H16         10.0080    26.2580    15.1910 hc         1 0UD       0.036117
     38 H17         10.3380    24.6770    15.9130 hc         1 0UD       0.036117
     39 H18          4.9200    29.4740    10.9310 h1         1 0UD       0.053200
     40 H19          4.6300    27.7320    11.1370 h1         1 0UD       0.053200
     41 H20          2.9010    29.0620    12.3320 hc         1 0UD       0.039367
     42 H21          3.8690    28.1370    13.4990 hc         1 0UD       0.039367
     43 H22          4.1510    29.8840    13.2880 hc         1 0UD       0.039367
     44 H23         10.1660    27.7190    13.9710 hn         1 0UD       0.152000
     45 H24          8.2770    28.0800    13.3340 hn         1 0UD       0.308500
     46 H25          6.4180    28.8970    13.1610 hn         1 0UD       0.461000
     47 H26          8.3400    27.8650    10.0040 hn         1 0UD       0.429400
@<TRIPOS>BOND
     1     1     2 1   
     2     1    22 1   
     3     1    23 1   
     4     1    24 1   
     5     2     3 1   
     6     2     4 1   
     7     2    25 1   
     8     3    26 1   
     9     3    27 1   
    10     3    28 1   
    11     4     5 ar  
    12     4    12 ar  
    13     5     6 ar  
    14     5    29 1   
    15     6     7 ar  
    16     6    30 1   
    17     7     8 ar  
    18     7    31 1   
    19     8     9 1   
    20     8    12 ar  
    21     9    10 1   
    22     9    11 1   
    23     9    32 1   
    24    10    33 1   
    25    10    34 1   
    26    10    35 1   
    27    11    36 1   
    28    11    37 1   
    29    11    38 1   
    30    12    17 1   
    31    13    17 1   
    32    13    18 1   
    33    13    21 2   
    34    14    18 1   
    35    14    19 1   
    36    14    20 2   
    37    15    16 1   
    38    15    19 1   
    39    15    39 1   
    40    15    40 1   
    41    16    41 1   
    42    16    42 1   
    43    16    43 1   
    44    17    44 1   
    45    18    45 1   
    46    19    46 1   
    47    20    47 1   
@<TRIPOS>SUBSTRUCTURE
     1 0UD         1 TEMP              0 ****  ****    0 ROOT
