@<TRIPOS>MOLECULE
0UD
   47    47     1     0     0
SMALL
bcc


@<TRIPOS>ATOM
      1 C01         12.9590    30.9340    13.1010 c3         1 0UD      -0.083600
      2 C02         12.2940    29.8310    12.2760 c3         1 0UD      -0.013900
      3 C03         12.4550    30.0960    10.7790 c3         1 0UD      -0.083600
      4 C04         12.8280    28.4660    12.6530 ca         1 0UD      -0.058300
      5 C05         14.1920    28.2150    12.5170 ca         1 0UD      -0.127000
      6 C06         14.7280    26.9910    12.8750 ca         1 0UD      -0.120000
      7 C07         13.9040    25.9990    13.3810 ca         1 0UD      -0.127000
      8 C08         12.5330    26.1990    13.5240 ca         1 0UD      -0.058300
      9 C09         11.7160    25.0610    14.1070 c3         1 0UD      -0.013900
     10 C10         10.6250    24.5180    13.1830 c3         1 0UD      -0.083600
     11 C11         11.1580    25.3800    15.4950 c3         1 0UD      -0.083600
     12 C12         12.0080    27.4420    13.1440 ca         1 0UD       0.062600
     13 C14          9.7770    27.6500    12.2190 c          1 0UD       0.803100
     14 C16          7.3960    28.0230    11.6420 c2         1 0UD       0.682800
     15 C18          5.0810    28.7700    11.4720 c3         1 0UD       0.223800
     16 C19          3.9520    29.2260    12.3770 c3         1 0UD      -0.107100
     17 N13         10.6150    27.6800    13.2860 ns         1 0UD      -0.513100
     18 N15          8.4740    27.9600    12.5350 ns         1 0UD      -0.572400
     19 N17          6.2810    28.5370    12.2470 nu         1 0UD      -0.859200
     20 N20          7.3730    27.6340    10.4310 n2         1 0UD      -0.862100
     21 O21         10.1520    27.3640    11.0930 o          1 0UD      -0.613100
     22 H1          12.8330    30.7620    14.1710 hc         1 0UD       0.036117
     23 H2          14.0280    31.0080    12.8960 hc         1 0UD       0.036117
     24 H3          12.5120    31.9010    12.8640 hc         1 0UD       0.036117
     25 H4          11.2280    29.8670    12.5050 hc         1 0UD       0.045700
     26 H5          12.0130    31.0580    10.5140 hc         1 0UD       0.036117
     27 H6          13.5060    30.1250    10.4870 hc         1 0UD       0.036117
     28 H7          11.9610    29.3250    10.1870 hc         1 0UD       0.036117
     29 H8          14.8450    28.9880    12.1310 ha         1 0UD       0.132500
     30 H9          15.7900    26.8110    12.7660 ha         1 0UD       0.133000
     31 H10         14.3300    25.0460    13.6700 ha         1 0UD       0.132500
     32 H11         12.4300    24.2440    14.2470 hc         1 0UD       0.045700
     33 H12         10.2880    23.5470    13.5510 hc         1 0UD       0.036117
     34 H13          9.7510    25.1660    13.1460 hc         1 0UD       0.036117
     35 H14         10.9910    24.3760    12.1660 hc         1 0UD       0.036117
     36 H15         11.9390    25.7410    16.1650 hc         1 0UD       0.036117
     37 H16         10.3680    26.1300    15.4600 hc         1 0UD       0.036117
     38 H17         10.7290    24.4810    15.9400 hc         1 0UD       0.036117
     39 H18          5.2510    29.5100    10.6820 h1         1 0UD       0.053200
     40 H19          4.8040    27.8410    10.9720 h1         1 0UD       0.053200
     41 H20          3.0480    29.3940    11.7930 hc         1 0UD       0.039367
     42 H21          3.7280    28.4790    13.1390 hc         1 0UD       0.039367
     43 H22          4.1970    30.1630    12.8810 hc         1 0UD       0.039367
     44 H23         10.2770    27.9960    14.1830 hn         1 0UD       0.318500
     45 H24          8.2580    28.1300    13.5070 hn         1 0UD       0.308500
     46 H25          6.4380    29.2040    12.9890 hn         1 0UD       0.405800
     47 H26          8.2520    27.2110    10.1670 hn         1 0UD       0.429400
@<TRIPOS>BOND
     1     1     2 1   
     2     1    22 1   
     3     1    23 1   
     4     1    24 1   
     5     2     3 1   
     6     2     4 1   
     7     2    25 1   
     8     3    26 1   
     9     3    27 1   
    10     3    28 1   
    11     4     5 ar  
    12     4    12 ar  
    13     5     6 ar  
    14     5    29 1   
    15     6     7 ar  
    16     6    30 1   
    17     7     8 ar  
    18     7    31 1   
    19     8     9 1   
    20     8    12 ar  
    21     9    10 1   
    22     9    11 1   
    23     9    32 1   
    24    10    33 1   
    25    10    34 1   
    26    10    35 1   
    27    11    36 1   
    28    11    37 1   
    29    11    38 1   
    30    12    17 1   
    31    13    17 1   
    32    13    18 1   
    33    13    21 2   
    34    14    18 1   
    35    14    19 1   
    36    14    20 2   
    37    15    16 1   
    38    15    19 1   
    39    15    39 1   
    40    15    40 1   
    41    16    41 1   
    42    16    42 1   
    43    16    43 1   
    44    17    44 1   
    45    18    45 1   
    46    19    46 1   
    47    20    47 1   
@<TRIPOS>SUBSTRUCTURE
     1 0UD         1 TEMP              0 ****  ****    0 ROOT
