@<TRIPOS>MOLECULE
0UF
   69    71     1     0     0
SMALL
bcc


@<TRIPOS>ATOM
      1 O5           3.0480     3.6980    -1.1200 o          1 0UF      -0.688867
      2 S1           4.1220     3.9540    -0.1400 s6         1 0UF       1.209800
      3 O4           5.4710     3.9270    -0.7400 o          1 0UF      -0.688867
      4 O6           3.8810     5.1510     0.6900 o          1 0UF      -0.688867
      5 C13          4.0750     2.5630     1.0050 c3         1 0UF      -0.249600
      6 C4           4.2630     1.2310     0.3000 c3         1 0UF      -0.056400
      7 C1           4.2560     0.0910     1.3100 c3         1 0UF       0.048300
      8 N1           4.4030    -1.2040     0.6710 na         1 0UF      -0.100400
      9 C8           5.6010    -1.8630     0.4450 ca         1 0UF      -0.046200
     10 C17          6.9150    -1.5640     0.7500 ca         1 0UF      -0.100000
     11 C23          7.8670    -2.5020     0.3610 ca         1 0UF      -0.116000
     12 C26          7.5140    -3.6780    -0.2990 ca         1 0UF      -0.132000
     13 C20          6.1870    -3.9720    -0.6040 ca         1 0UF      -0.093000
     14 C14          5.2640    -3.0330    -0.2130 ca         1 0UF       0.034100
     15 O1           3.9090    -3.0550    -0.3820 os         1 0UF      -0.185200
     16 C9           3.4080    -1.9380     0.1490 cc         1 0UF       0.271000
     17 C18          2.0540    -1.6340     0.1340 cf         1 0UF      -0.347000
     18 C24          1.1040    -2.4950    -0.3910 cf         1 0UF       0.077000
     19 C25         -0.2820    -2.3140    -0.4690 ce         1 0UF      -0.299000
     20 C19         -0.9160    -1.1570    -0.0440 ce         1 0UF       0.131000
     21 C10         -2.2650    -0.7990    -0.0460 cd         1 0UF      -0.407400
     22 C12         -3.3050    -1.6680    -0.5160 c          1 0UF       0.733700
     23 O3          -3.1270    -2.8120    -0.9020 o          1 0UF      -0.613500
     24 C11         -2.5920     0.5100     0.4590 c          1 0UF       0.733700
     25 O2          -1.7670     1.3100     0.8730 o          1 0UF      -0.613500
     26 N2          -3.9490     0.8600     0.4810 n          1 0UF      -0.449900
     27 C2          -4.2630     2.1700     1.0620 c3         1 0UF       0.094500
     28 C5          -4.2360     3.2970     0.0410 c3         1 0UF      -0.093900
     29 C15         -4.5050     4.6460     0.6970 c3         1 0UF      -0.069900
     30 C21         -4.4970     5.7910    -0.3070 c3         1 0UF      -0.086600
     31 C7          -4.9450     0.0910    -0.0490 cs         1 0UF       0.619400
     32 S2          -6.5260     0.6340    -0.0890 s          1 0UF      -0.653400
     33 N3          -4.6060    -1.1350    -0.5430 n          1 0UF      -0.449900
     34 C3          -5.6480    -2.0120    -1.0900 c3         1 0UF       0.094500
     35 C6          -6.3460    -2.8390    -0.0220 c3         1 0UF      -0.093900
     36 C16         -7.3820    -3.7740    -0.6340 c3         1 0UF      -0.069900
     37 C22         -8.1270    -4.5850     0.4170 c3         1 0UF      -0.086600
     38 H1           4.8580     2.7290     1.7480 h1         1 0UF       0.069200
     39 H2           3.1130     2.5990     1.5220 h1         1 0UF       0.069200
     40 H3           3.4620     1.0850    -0.4280 hc         1 0UF       0.067200
     41 H4           5.2070     1.2270    -0.2490 hc         1 0UF       0.067200
     42 H5           5.0730     0.1960     2.0230 h1         1 0UF       0.062700
     43 H6           3.3350     0.0810     1.8940 h1         1 0UF       0.062700
     44 H7           7.1990    -0.6540     1.2600 ha         1 0UF       0.162000
     45 H8           8.9090    -2.3100     0.5780 ha         1 0UF       0.140000
     46 H9           8.2860    -4.3790    -0.5840 ha         1 0UF       0.137000
     47 H10          5.9030    -4.8810    -1.1170 ha         1 0UF       0.154000
     48 H11          1.7720    -0.6820     0.5610 ha         1 0UF       0.171000
     49 H13          1.4600    -3.4390    -0.7910 ha         1 0UF       0.116000
     50 H15         -0.8500    -3.1280    -0.8900 ha         1 0UF       0.157000
     51 H17         -0.2740    -0.3770     0.3510 ha         1 0UF       0.141000
     52 H20         -5.2440     2.1020     1.5270 h1         1 0UF       0.075450
     53 H21         -3.5370     2.3570     1.8480 h1         1 0UF       0.075450
     54 H22         -3.2630     3.3200    -0.4570 hc         1 0UF       0.056450
     55 H23         -4.9870     3.1070    -0.7300 hc         1 0UF       0.056450
     56 H24         -5.4710     4.6160     1.2110 hc         1 0UF       0.036700
     57 H25         -3.7540     4.8300     1.4700 hc         1 0UF       0.036700
     58 H26         -3.5380     5.8520    -0.8250 hc         1 0UF       0.030033
     59 H27         -5.2730     5.6570    -1.0620 hc         1 0UF       0.030033
     60 H28         -4.6700     6.7510     0.1810 hc         1 0UF       0.030033
     61 H29         -6.3640    -1.3900    -1.6200 h1         1 0UF       0.075450
     62 H30         -5.1730    -2.6630    -1.8190 h1         1 0UF       0.075450
     63 H31         -5.6090    -3.4230     0.5350 hc         1 0UF       0.056450
     64 H32         -6.8320    -2.1700     0.6930 hc         1 0UF       0.056450
     65 H33         -8.0990    -3.1900    -1.2200 hc         1 0UF       0.036700
     66 H34         -6.8910    -4.4500    -1.3400 hc         1 0UF       0.036700
     67 H35         -7.4390    -5.1880     1.0110 hc         1 0UF       0.030033
     68 H36         -8.6700    -3.9340     1.1040 hc         1 0UF       0.030033
     69 H37         -8.8500    -5.2610    -0.0400 hc         1 0UF       0.030033
@<TRIPOS>BOND
     1     1     2 1   
     2     2     3 1   
     3     2     4 1   
     4     2     5 1   
     5     5     6 1   
     6     5    38 1   
     7     5    39 1   
     8     6     7 1   
     9     6    40 1   
    10     6    41 1   
    11     7     8 1   
    12     7    42 1   
    13     7    43 1   
    14     8     9 1   
    15     8    16 1   
    16     9    10 ar  
    17     9    14 ar  
    18    10    11 ar  
    19    10    44 1   
    20    11    12 ar  
    21    11    45 1   
    22    12    13 ar  
    23    12    46 1   
    24    13    14 ar  
    25    13    47 1   
    26    14    15 1   
    27    15    16 1   
    28    16    17 2   
    29    17    18 1   
    30    17    48 1   
    31    18    19 2   
    32    18    49 1   
    33    19    20 1   
    34    19    50 1   
    35    20    21 2   
    36    20    51 1   
    37    21    22 1   
    38    21    24 1   
    39    22    23 2   
    40    22    33 1   
    41    24    25 2   
    42    24    26 1   
    43    26    27 1   
    44    26    31 1   
    45    27    28 1   
    46    27    52 1   
    47    27    53 1   
    48    28    29 1   
    49    28    54 1   
    50    28    55 1   
    51    29    30 1   
    52    29    56 1   
    53    29    57 1   
    54    30    58 1   
    55    30    59 1   
    56    30    60 1   
    57    31    32 2   
    58    31    33 1   
    59    33    34 1   
    60    34    35 1   
    61    34    61 1   
    62    34    62 1   
    63    35    36 1   
    64    35    63 1   
    65    35    64 1   
    66    36    37 1   
    67    36    65 1   
    68    36    66 1   
    69    37    67 1   
    70    37    68 1   
    71    37    69 1   
@<TRIPOS>SUBSTRUCTURE
     1 0UF         1 TEMP              0 ****  ****    0 ROOT
