@<TRIPOS>MOLECULE
0UF
   69    71     1     0     0
SMALL
No Charge or Current Charge


@<TRIPOS>ATOM
      1 O5           3.7770     3.9260     1.6210 o          1 0UF      -0.688867
      2 S1           4.7910     3.4660     2.5810 s6         1 0UF       1.320600
      3 O4           6.1720     3.5080     2.0810 o          1 0UF      -0.688867
      4 O6           4.6190     3.9860     3.9450 o          1 0UF      -0.688867
      5 C13          4.4480     1.6960     2.7600 c3         1 0UF      -0.360400
      6 C4           4.5580     0.8940     1.4370 c3         1 0UF      -0.056400
      7 C1           4.2780    -0.6090     1.6310 c3         1 0UF       0.077600
      8 N1           4.3880    -1.3770     0.3770 na         1 0UF      -0.129700
      9 C8           5.5480    -1.9540    -0.0650 ca         1 0UF      -0.046200
     10 C17          6.8460    -1.9330     0.4680 ca         1 0UF      -0.082000
     11 C23          7.8520    -2.6350    -0.2300 ca         1 0UF      -0.098000
     12 C26          7.5450    -3.3290    -1.4260 ca         1 0UF      -0.114000
     13 C20          6.2290    -3.3270    -1.9380 ca         1 0UF      -0.075000
     14 C14          5.2480    -2.6230    -1.2270 ca         1 0UF       0.034100
     15 O1           3.9250    -2.5070    -1.5800 os         1 0UF      -0.185200
     16 C9           3.4150    -1.7030    -0.5680 cc         1 0UF       0.271000
     17 C18          2.0850    -1.4020    -0.5000 cf         1 0UF      -0.397000
     18 C24          1.0280    -1.9990    -1.3080 cf         1 0UF       0.027000
     19 C25         -0.2990    -1.7080    -1.2200 ce         1 0UF      -0.349000
     20 C19         -0.9230    -0.7160    -0.3270 ce         1 0UF       0.081000
     21 C10         -2.2840    -0.4400    -0.2910 cd         1 0UF      -0.407400
     22 C12         -3.2970    -1.4880    -0.3890 c          1 0UF       0.591200
     23 O3          -2.9740    -2.6660    -0.4630 o          1 0UF      -0.538000
     24 C11         -2.7490     0.9210    -0.0480 c          1 0UF       0.591200
     25 O2          -1.9430     1.8280     0.1140 o          1 0UF      -0.538000
     26 N2          -4.1320     1.1670    -0.0270 n          1 0UF      -0.315900
     27 C2          -4.5440     2.5770     0.2610 c3         1 0UF       0.094500
     28 C5          -4.6840     3.4370    -1.0140 c3         1 0UF      -0.093900
     29 C15         -5.1120     4.8900    -0.7150 c3         1 0UF      -0.069900
     30 C21         -5.2520     5.7500    -1.9860 c3         1 0UF      -0.086600
     31 C7          -5.1010     0.1930    -0.2310 cs         1 0UF       0.485400
     32 S2          -6.7460     0.5740    -0.2530 s          1 0UF      -0.653400
     33 N3          -4.6520    -1.1140    -0.3760 n          1 0UF      -0.315900
     34 C3          -5.6400    -2.2190    -0.5820 c3         1 0UF       0.094500
     35 C6          -6.1130    -2.8580     0.7420 c3         1 0UF      -0.093900
     36 C16         -7.1320    -3.9980     0.5300 c3         1 0UF      -0.069900
     37 C22         -7.6040    -4.6370     1.8500 c3         1 0UF      -0.086600
     38 H1           5.1650     1.3190     3.4970 h1         1 0UF       0.069200
     39 H2           3.4360     1.6200     3.1710 h1         1 0UF       0.069200
     40 H3           3.8500     1.2960     0.7000 hc         1 0UF       0.067200
     41 H4           5.5630     1.0160     1.0130 hc         1 0UF       0.067200
     42 H5           4.9830    -1.0200     2.3640 h1         1 0UF       0.062700
     43 H6           3.2710    -0.7430     2.0450 h1         1 0UF       0.062700
     44 H7           7.0770    -1.3950     1.3850 ha         1 0UF       0.144000
     45 H8           8.8700    -2.6420     0.1530 ha         1 0UF       0.122000
     46 H9           8.3290    -3.8660    -1.9550 ha         1 0UF       0.119000
     47 H10          5.9820    -3.8530    -2.8560 ha         1 0UF       0.136000
     48 H11          1.7970    -0.7690     0.3360 ha         1 0UF       0.221000
     49 H13          1.3310    -2.7530    -2.0400 ha         1 0UF       0.166000
     50 H15         -0.9680    -2.2510    -1.8880 ha         1 0UF       0.207000
     51 H17         -0.2590     0.1120    -0.0720 ha         1 0UF       0.191000
     52 H20         -5.4890     2.5910     0.8160 h1         1 0UF       0.075450
     53 H21         -3.8170     3.0520     0.9340 h1         1 0UF       0.075450
     54 H22         -3.7270     3.4450    -1.5490 hc         1 0UF       0.056450
     55 H23         -5.4200     2.9740    -1.6830 hc         1 0UF       0.056450
     56 H24         -6.0700     4.8850    -0.1810 hc         1 0UF       0.036700
     57 H25         -4.3760     5.3560    -0.0480 hc         1 0UF       0.036700
     58 H26         -4.2990     5.8040    -2.5250 hc         1 0UF       0.030033
     59 H27         -6.0080     5.3280    -2.6590 hc         1 0UF       0.030033
     60 H28         -5.5570     6.7710    -1.7240 hc         1 0UF       0.030033
     61 H29         -6.5110    -1.8550    -1.1420 h1         1 0UF       0.075450
     62 H30         -5.2060    -3.0000    -1.2200 h1         1 0UF       0.075450
     63 H31         -5.2420    -3.2480     1.2830 hc         1 0UF       0.056450
     64 H32         -6.5620    -2.0840     1.3760 hc         1 0UF       0.056450
     65 H33         -8.0050    -3.6090    -0.0100 hc         1 0UF       0.036700
     66 H34         -6.6840    -4.7750    -0.1020 hc         1 0UF       0.036700
     67 H35         -6.7570    -5.0670     2.3980 hc         1 0UF       0.030033
     68 H36         -8.0900    -3.8920     2.4910 hc         1 0UF       0.030033
     69 H37         -8.3260    -5.4390     1.6490 hc         1 0UF       0.030033
@<TRIPOS>BOND
     1     1     2 1   
     2     2     3 1   
     3     2     4 1   
     4     2     5 1   
     5     5     6 1   
     6     5    38 1   
     7     5    39 1   
     8     6     7 1   
     9     6    40 1   
    10     6    41 1   
    11     7     8 1   
    12     7    42 1   
    13     7    43 1   
    14     8     9 1   
    15     8    16 1   
    16     9    10 ar  
    17     9    14 ar  
    18    10    11 ar  
    19    10    44 1   
    20    11    12 ar  
    21    11    45 1   
    22    12    13 ar  
    23    12    46 1   
    24    13    14 ar  
    25    13    47 1   
    26    14    15 1   
    27    15    16 1   
    28    16    17 2   
    29    17    18 1   
    30    17    48 1   
    31    18    19 2   
    32    18    49 1   
    33    19    20 1   
    34    19    50 1   
    35    20    21 2   
    36    20    51 1   
    37    21    22 1   
    38    21    24 1   
    39    22    23 2   
    40    22    33 1   
    41    24    25 2   
    42    24    26 1   
    43    26    27 1   
    44    26    31 1   
    45    27    28 1   
    46    27    52 1   
    47    27    53 1   
    48    28    29 1   
    49    28    54 1   
    50    28    55 1   
    51    29    30 1   
    52    29    56 1   
    53    29    57 1   
    54    30    58 1   
    55    30    59 1   
    56    30    60 1   
    57    31    32 2   
    58    31    33 1   
    59    33    34 1   
    60    34    35 1   
    61    34    61 1   
    62    34    62 1   
    63    35    36 1   
    64    35    63 1   
    65    35    64 1   
    66    36    37 1   
    67    36    65 1   
    68    36    66 1   
    69    37    67 1   
    70    37    68 1   
    71    37    69 1   
@<TRIPOS>SUBSTRUCTURE
     1 0UF         1 TEMP              0 ****  ****    0 ROOT
