@<TRIPOS>MOLECULE
0UI
   22    24     1     0     0
SMALL
abcg2


@<TRIPOS>ATOM
      1 C4          53.9520    18.3710    13.4540 cc         1 0UI      -0.070000
      2 C5          52.9310    18.6450    12.4910 cc         1 0UI      -0.153000
      3 C6          53.0240    19.2270    11.1780 ca         1 0UI       0.103000
      4 C11         51.8350    19.3900    10.4410 ca         1 0UI      -0.207600
      5 C7          54.2390    19.6290    10.6200 ca         1 0UI      -0.230000
      6 C8          54.2790    20.1870     9.3520 ca         1 0UI       0.179100
      7 C9          53.0940    20.3560     8.6180 ca         1 0UI      -0.168000
      8 C10         51.8980    19.9590     9.1630 ca         1 0UI      -0.008000
      9 N1          50.5500    18.4340    12.2270 ns         1 0UI      -0.356100
     10 C3          53.4680    17.8170    14.5890 cd         1 0UI      -0.247000
     11 C1          50.5310    18.9830    10.9670 c          1 0UI       0.584600
     12 C2          51.6930    18.2750    12.9530 cd         1 0UI      -0.023400
     13 S1          51.7510    17.6040    14.5350 ss         1 0UI       0.184000
     14 O2          55.4180    20.5850     8.7710 oh         1 0UI      -0.526100
     15 H1          55.0020    18.5790    13.3050 ha         1 0UI       0.137000
     16 H2          55.1600    19.5060    11.1790 ha         1 0UI       0.117000
     17 H3          53.1330    20.7950     7.6290 ha         1 0UI       0.135000
     18 H4          50.9860    20.0880     8.5960 ha         1 0UI       0.139000
     19 H5          49.6600    18.1440    12.6110 hn         1 0UI       0.336500
     20 H6          54.0110    17.5120    15.4690 h4         1 0UI       0.155000
     21 H7          56.1750    20.4250     9.3480 ho         1 0UI       0.469000
     22 O1          49.4760    19.1060    10.3630 o          1 0UI      -0.549000
@<TRIPOS>BOND
     1     1     2 1   
     2     1    10 2   
     3     1    15 1   
     4     2     3 1   
     5     2    12 2   
     6     3     4 ar  
     7     3     5 ar  
     8     4     8 ar  
     9     4    11 1   
    10     5     6 ar  
    11     5    16 1   
    12     6     7 ar  
    13     6    14 1   
    14     7     8 ar  
    15     7    17 1   
    16     8    18 1   
    17     9    11 1   
    18     9    12 1   
    19     9    19 1   
    20    10    13 1   
    21    10    20 1   
    22    11    22 2   
    23    12    13 1   
    24    14    21 1   
@<TRIPOS>SUBSTRUCTURE
     1 0UI         1 TEMP              0 ****  ****    0 ROOT
