@<TRIPOS>MOLECULE
0UI
   22    24     1     0     0
SMALL
No Charge or Current Charge


@<TRIPOS>ATOM
      1 C4          53.9560    18.3740    13.4370 cc         1 0UI      -0.070000
      2 C5          52.9140    18.6380    12.5060 cc         1 0UI      -0.153000
      3 C6          52.9920    19.2300    11.1640 ca         1 0UI       0.103000
      4 C11         51.8100    19.4010    10.4050 ca         1 0UI      -0.207600
      5 C7          54.2270    19.6330    10.6170 ca         1 0UI      -0.230000
      6 C8          54.2850    20.1960     9.3350 ca         1 0UI       0.179100
      7 C9          53.1160    20.3650     8.5850 ca         1 0UI      -0.168000
      8 C10         51.8780    19.9700     9.1150 ca         1 0UI      -0.008000
      9 N1          50.5300    18.4350    12.2390 ns         1 0UI      -0.356100
     10 C3          53.5200    17.8070    14.6100 cd         1 0UI      -0.247000
     11 C1          50.4840    18.9750    10.9790 c          1 0UI       0.584600
     12 C2          51.6830    18.2690    12.9770 cd         1 0UI      -0.023400
     13 S1          51.7600    17.5740    14.6050 ss         1 0UI       0.184000
     14 O2          55.4820    20.5830     8.8120 oh         1 0UI      -0.526100
     15 H1          54.9990    18.6000    13.2370 ha         1 0UI       0.137000
     16 H2          55.1420    19.5080    11.1870 ha         1 0UI       0.117000
     17 H3          53.1660    20.8020     7.5910 ha         1 0UI       0.135000
     18 H4          50.9740    20.1060     8.5230 ha         1 0UI       0.139000
     19 H5          49.6330    18.1530    12.6140 hn         1 0UI       0.336500
     20 H6          54.1070    17.5120    15.4710 h4         1 0UI       0.155000
     21 H7          56.1810    20.3910     9.4720 ho         1 0UI       0.469000
     22 O1          49.4260    19.0940    10.3790 o          1 0UI      -0.549000
@<TRIPOS>BOND
     1     1     2 1   
     2     1    10 2   
     3     1    15 1   
     4     2     3 1   
     5     2    12 2   
     6     3     4 ar  
     7     3     5 ar  
     8     4     8 ar  
     9     4    11 1   
    10     5     6 ar  
    11     5    16 1   
    12     6     7 ar  
    13     6    14 1   
    14     7     8 ar  
    15     7    17 1   
    16     8    18 1   
    17     9    11 1   
    18     9    12 1   
    19     9    19 1   
    20    10    13 1   
    21    10    20 1   
    22    11    22 2   
    23    12    13 1   
    24    14    21 1   
@<TRIPOS>SUBSTRUCTURE
     1 0UI         1 TEMP              0 ****  ****    0 ROOT
