@<TRIPOS>MOLECULE
0UJ
   46    50     1     0     0
SMALL
No Charge or Current Charge


@<TRIPOS>ATOM
      1 C4           1.7050     1.0630     0.9120 c3         1 0UJ       0.196500
      2 C14         -0.9400    -2.3110     1.0900 c5         1 0UJ      -0.093400
      3 C5           0.2020     1.1100     0.6500 cc         1 0UJ       0.380800
      4 C11          1.4260    -2.5350     1.2070 c5         1 0UJ      -0.087400
      5 C7          -0.3730    -1.3770    -0.0370 c5         1 0UJ       0.087300
      6 C9           1.0980    -1.9230    -0.1820 c5         1 0UJ      -0.085700
      7 C12          0.1600    -3.4050     1.2610 c5         1 0UJ      -0.073700
      8 N3           2.5320     1.4830    -0.2600 n7         1 0UJ      -0.872300
      9 S2           4.1900     1.4840    -0.1180 s6         1 0UJ       1.199100
     10 N6          -0.6490     0.0640     0.1890 na         1 0UJ      -0.162600
     11 C15          0.9870    -3.2310    -1.0330 c5         1 0UJ      -0.082400
     12 C16          0.2390    -4.2120    -0.0760 c5         1 0UJ      -0.079400
     13 C17         -1.8880     0.6500     0.0590 ca         1 0UJ      -0.012200
     14 C18         -3.1380     0.1850    -0.3860 ca         1 0UJ      -0.133800
     15 C19         -3.5800    -1.0830    -0.9000 cc         1 0UJ      -0.231200
     16 C20         -4.9290    -0.9520    -1.1830 cd         1 0UJ      -0.170100
     17 N21         -5.3310     0.3670    -0.8590 na         1 0UJ      -0.303400
     18 C23         -4.2250     1.0440    -0.3840 ca         1 0UJ       0.360500
     19 N24         -4.1520     2.3320     0.0220 nb         1 0UJ      -0.691000
     20 C25         -2.9340     2.7830     0.4410 ca         1 0UJ       0.431900
     21 C26         -1.7880     1.9480     0.4610 ca         1 0UJ      -0.023600
     22 N27         -0.4870     2.2580     0.8360 nd         1 0UJ      -0.523100
     23 O28          4.7020     2.0200    -1.3790 o          1 0UJ      -0.523000
     24 O29          4.5010     2.1470     1.1490 o          1 0UJ      -0.523000
     25 H1           1.8960     1.7430     1.7530 h1         1 0UJ       0.076200
     26 H2           1.9890     0.0740     1.2740 h1         1 0UJ       0.076200
     27 H4          -1.9170    -2.7370     0.8390 hc         1 0UJ       0.065200
     28 H5           2.3560    -3.1190     1.2180 hc         1 0UJ       0.056700
     29 H6           1.4700    -1.8170     2.0320 hc         1 0UJ       0.056700
     30 H7          -0.8810    -1.6100    -0.9800 h1         1 0UJ       0.075700
     31 H8           1.8260    -1.2220    -0.5960 hc         1 0UJ       0.054700
     32 H9           0.0510    -4.0210     2.1610 hc         1 0UJ       0.076700
     33 H10          2.3960     0.8310    -1.0300 hn         1 0UJ       0.485000
     34 H11          4.2150    -0.7500    -0.9030 h1         1 0UJ       0.100033
     35 H12          5.6640    -0.3340     0.0830 h1         1 0UJ       0.100033
     36 H13          4.0940    -0.6520     0.9020 h1         1 0UJ       0.100033
     37 H14          0.4600    -3.0840    -1.9840 hc         1 0UJ       0.050200
     38 H15          1.9820    -3.6170    -1.2860 hc         1 0UJ       0.050200
     39 H16          0.8070    -5.1410     0.0530 hc         1 0UJ       0.050200
     40 H17         -0.7510    -4.4950    -0.4530 hc         1 0UJ       0.050200
     41 H18         -3.0020    -1.9870    -1.0680 ha         1 0UJ       0.200000
     42 H19         -5.6230    -1.6870    -1.5900 h4         1 0UJ       0.216000
     43 H20         -6.2580     0.7650    -0.9570 hn         1 0UJ       0.362000
     44 H21         -2.8750     3.8240     0.7580 h4         1 0UJ       0.038100
     45 H3          -1.0780    -1.7590     2.0270 hc         1 0UJ       0.065200
     46 C1           4.5750    -0.2530     0.0040 c3         1 0UJ      -0.392100
@<TRIPOS>BOND
     1     1     3 1   
     2     1     8 1   
     3     1    25 1   
     4     1    26 1   
     5     2     5 1   
     6     2     7 1   
     7     2    27 1   
     8     2    45 1   
     9     3    10 1   
    10     3    22 2   
    11     4     6 1   
    12     4     7 1   
    13     4    28 1   
    14     4    29 1   
    15     5     6 1   
    16     5    10 1   
    17     5    30 1   
    18     6    11 1   
    19     6    31 1   
    20     7    12 1   
    21     7    32 1   
    22     8     9 1   
    23     8    33 1   
    24     9    23 2   
    25     9    24 2   
    26     9    46 1   
    27    10    13 1   
    28    11    12 1   
    29    11    37 1   
    30    11    38 1   
    31    12    39 1   
    32    12    40 1   
    33    13    14 ar  
    34    13    21 ar  
    35    14    15 1   
    36    14    18 ar  
    37    15    16 2   
    38    15    41 1   
    39    16    17 1   
    40    16    42 1   
    41    17    18 1   
    42    17    43 1   
    43    18    19 ar  
    44    19    20 ar  
    45    20    21 ar  
    46    20    44 1   
    47    21    22 1   
    48    34    46 1   
    49    35    46 1   
    50    36    46 1   
@<TRIPOS>SUBSTRUCTURE
     1 0UJ         1 TEMP              0 ****  ****    0 ROOT
