@<TRIPOS>MOLECULE
0UJ
   46    50     1     0     0
SMALL
bcc


@<TRIPOS>ATOM
      1 C4           1.7020     0.9570     0.9480 c3         1 0UJ       0.196500
      2 C14         -1.0770    -2.3600     0.8280 c5         1 0UJ      -0.093400
      3 C5           0.2230     0.9950     0.7440 cc         1 0UJ       0.380800
      4 C11          1.2220    -2.4320     1.3690 c5         1 0UJ      -0.087400
      5 C7          -0.3330    -1.4040    -0.1530 c5         1 0UJ       0.058000
      6 C9           1.1100    -1.9240    -0.0740 c5         1 0UJ      -0.085700
      7 C12          0.0060    -3.3540     1.2600 c5         1 0UJ      -0.073700
      8 N3           2.3680     1.3010    -0.3100 n7         1 0UJ      -0.817100
      9 S2           4.0110     1.4490    -0.3270 s6         1 0UJ       1.229900
     10 N6          -0.5640     0.0070     0.1860 na         1 0UJ      -0.133300
     11 C15          1.1340    -3.2480    -0.8600 c5         1 0UJ      -0.082400
     12 C16          0.3700    -4.2330     0.0590 c5         1 0UJ      -0.079400
     13 C17         -1.8180     0.5450     0.0850 ca         1 0UJ      -0.012200
     14 C18         -3.0460     0.0920    -0.4150 ca         1 0UJ      -0.199100
     15 C19         -3.6040    -1.0540    -1.0540 cc         1 0UJ      -0.181200
     16 C20         -4.9230    -0.7690    -1.2770 cd         1 0UJ      -0.120100
     17 N21         -5.2100     0.4810    -0.8180 na         1 0UJ      -0.253100
     18 C23         -4.0870     1.0410    -0.2900 ca         1 0UJ       0.425800
     19 N24         -4.0300     2.2710     0.2280 nb         1 0UJ      -0.691000
     20 C25         -2.8570     2.6660     0.6730 ca         1 0UJ       0.497200
     21 C26         -1.7290     1.8350     0.6130 ca         1 0UJ      -0.088900
     22 N27         -0.4430     2.0830     1.0070 nd         1 0UJ      -0.523100
     23 O28          4.3710     1.9130    -1.6560 o          1 0UJ      -0.593800
     24 O29          4.3670     2.2410     0.8390 o          1 0UJ      -0.593800
     25 H1           1.9260     1.7310     1.6780 h1         1 0UJ       0.076200
     26 H2           2.0420     0.0090     1.3670 h1         1 0UJ       0.076200
     27 H4          -1.9330    -2.8500     0.3650 hc         1 0UJ       0.065200
     28 H5           2.1600    -2.9540     1.5650 hc         1 0UJ       0.056700
     29 H6           1.0870    -1.6640     2.1340 hc         1 0UJ       0.056700
     30 H7          -0.6980    -1.5130    -1.1760 h1         1 0UJ       0.075700
     31 H8           1.8670    -1.2320    -0.4370 hc         1 0UJ       0.054700
     32 H9          -0.2570    -3.9080     2.1610 hc         1 0UJ       0.076700
     33 H10          2.0080     0.8440    -1.1410 hn         1 0UJ       0.429800
     34 H11          4.3720    -0.8120    -0.9460 h1         1 0UJ       0.100033
     35 H12          5.7650    -0.1040    -0.0930 h1         1 0UJ       0.100033
     36 H13          4.3330    -0.6070     0.8300 h1         1 0UJ       0.100033
     37 H14          0.6860    -3.1460    -1.8500 hc         1 0UJ       0.050200
     38 H15          2.1670    -3.5660    -1.0080 hc         1 0UJ       0.050200
     39 H16          1.0070    -5.0670     0.3610 hc         1 0UJ       0.050200
     40 H17         -0.5140    -4.6570    -0.4200 hc         1 0UJ       0.050200
     41 H18         -3.1100    -1.9690    -1.3320 ha         1 0UJ       0.150000
     42 H19         -5.6870    -1.3750    -1.7360 h4         1 0UJ       0.166000
     43 H20         -6.1130     0.9250    -0.8590 hn         1 0UJ       0.311700
     44 H21         -2.7850     3.6640     1.0910 h4         1 0UJ       0.038100
     45 H3          -1.4450    -1.8000     1.6900 hc         1 0UJ       0.065200
     46 C1           4.6790    -0.1860    -0.1120 c3         1 0UJ      -0.281300
@<TRIPOS>BOND
     1     1     3 1   
     2     1     8 1   
     3     1    25 1   
     4     1    26 1   
     5     2     5 1   
     6     2     7 1   
     7     2    27 1   
     8     2    45 1   
     9     3    10 1   
    10     3    22 2   
    11     4     6 1   
    12     4     7 1   
    13     4    28 1   
    14     4    29 1   
    15     5     6 1   
    16     5    10 1   
    17     5    30 1   
    18     6    11 1   
    19     6    31 1   
    20     7    12 1   
    21     7    32 1   
    22     8     9 1   
    23     8    33 1   
    24     9    23 2   
    25     9    24 2   
    26     9    46 1   
    27    10    13 1   
    28    11    12 1   
    29    11    37 1   
    30    11    38 1   
    31    12    39 1   
    32    12    40 1   
    33    13    14 ar  
    34    13    21 ar  
    35    14    15 1   
    36    14    18 ar  
    37    15    16 2   
    38    15    41 1   
    39    16    17 1   
    40    16    42 1   
    41    17    18 1   
    42    17    43 1   
    43    18    19 ar  
    44    19    20 ar  
    45    20    21 ar  
    46    20    44 1   
    47    21    22 1   
    48    34    46 1   
    49    35    46 1   
    50    36    46 1   
@<TRIPOS>SUBSTRUCTURE
     1 0UJ         1 TEMP              0 ****  ****    0 ROOT
