@<TRIPOS>MOLECULE
0UL
   25    27     1     0     0
SMALL
abcg2


@<TRIPOS>ATOM
      1 CAE         -2.9480     1.0000     0.2440 ca         1 0UL      -0.084500
      2 CAC         -4.3110     0.7500     0.2920 ca         1 0UL      -0.114500
      3 CAB         -4.7990    -0.5300     0.0650 ca         1 0UL      -0.097000
      4 CAD         -3.9100    -1.5600    -0.2150 ca         1 0UL      -0.114500
      5 CAF         -2.5470    -1.3120    -0.2650 ca         1 0UL      -0.084500
      6 CAM         -2.0470    -0.0300    -0.0270 ca         1 0UL      -0.138500
      7 CAN         -0.5990     0.2470    -0.0620 cc         1 0UL       0.342500
      8 NAI         -0.2150     1.5220    -0.3080 nc         1 0UL      -0.638000
      9 CAG          1.0500     1.8310    -0.3500 cd         1 0UL       0.372900
     10 CAO          2.0510     0.8640    -0.1460 cd         1 0UL      -0.101000
     11 NAJ          3.3740     0.8970    -0.1320 nc         1 0UL      -0.427300
     12 CAL          3.7020    -0.3790     0.1380 cc         1 0UL       0.742200
     13 NAA          4.9810    -0.7880     0.2920 nv         1 0UL      -0.991200
     14 NAK          2.6720    -1.2140     0.2940 nd         1 0UL      -0.659100
     15 NAP          1.6260    -0.4090     0.1110 na         1 0UL       0.326400
     16 CAH          0.3240    -0.7450     0.1670 cd         1 0UL      -0.107000
     17 H1          -2.5790     2.0000     0.4270 ha         1 0UL       0.121000
     18 H2          -4.9950     1.5600     0.5100 ha         1 0UL       0.115500
     19 H3          -5.8630    -0.7230     0.1020 ha         1 0UL       0.115000
     20 H4          -4.2780    -2.5590    -0.4080 ha         1 0UL       0.115500
     21 H5          -1.8760    -2.1260    -0.5110 ha         1 0UL       0.121000
     22 H6           1.3300     2.8580    -0.5480 h4         1 0UL       0.052100
     23 H7           5.6880    -0.2030    -0.1210 hn         1 0UL       0.481000
     24 H8           5.1570    -1.7750     0.2070 hn         1 0UL       0.481000
     25 H9           0.0930    -1.7720     0.4070 h4         1 0UL       0.171000
@<TRIPOS>BOND
     1     1     2 ar  
     2     1     6 ar  
     3     1    17 1   
     4     2     3 ar  
     5     2    18 1   
     6     3     4 ar  
     7     3    19 1   
     8     4     5 ar  
     9     4    20 1   
    10     5     6 ar  
    11     5    21 1   
    12     6     7 1   
    13     7     8 1   
    14     7    16 2   
    15     8     9 2   
    16     9    10 1   
    17     9    22 1   
    18    10    11 2   
    19    10    15 1   
    20    11    12 1   
    21    12    13 1   
    22    12    14 2   
    23    13    23 1   
    24    13    24 1   
    25    14    15 1   
    26    15    16 1   
    27    16    25 1   
@<TRIPOS>SUBSTRUCTURE
     1 0UL         1 TEMP              0 ****  ****    0 ROOT
