@<TRIPOS>MOLECULE
0UL
   25    27     1     0     0
SMALL
No Charge or Current Charge


@<TRIPOS>ATOM
      1 CAE         -2.9290     0.9870     0.3790 ca         1 0UL      -0.084500
      2 CAC         -4.3060     0.7060     0.4320 ca         1 0UL      -0.114500
      3 CAB         -4.7790    -0.5680     0.0810 ca         1 0UL      -0.097000
      4 CAD         -3.8740    -1.5570    -0.3330 ca         1 0UL      -0.114500
      5 CAF         -2.4970    -1.2790    -0.3860 ca         1 0UL      -0.084500
      6 CAM         -2.0020    -0.0080    -0.0080 ca         1 0UL      -0.138500
      7 CAN         -0.5670     0.3090    -0.1000 cc         1 0UL       0.342500
      8 NAI         -0.1950     1.6000    -0.4820 nc         1 0UL      -0.638000
      9 CAG          1.1130     1.8550    -0.5390 cd         1 0UL       0.372900
     10 CAO          2.0570     0.8430    -0.2100 cd         1 0UL      -0.101000
     11 NAJ          3.3760     0.8630    -0.1920 nc         1 0UL      -0.427300
     12 CAL          3.6340    -0.4080     0.2150 cc         1 0UL       0.742200
     13 NAA          4.8960    -0.7860     0.3490 nv         1 0UL      -0.991200
     14 NAK          2.6590    -1.2460     0.4570 nd         1 0UL      -0.659100
     15 NAP          1.6440    -0.3920     0.1680 na         1 0UL       0.326400
     16 CAH          0.3050    -0.7230     0.2520 cd         1 0UL      -0.107000
     17 H1          -2.5840     1.9820     0.6530 ha         1 0UL       0.121000
     18 H2          -5.0060     1.4780     0.7430 ha         1 0UL       0.115500
     19 H3          -5.8450    -0.7840     0.1200 ha         1 0UL       0.115000
     20 H4          -4.2410    -2.5400    -0.6220 ha         1 0UL       0.115500
     21 H5          -1.8220    -2.0570    -0.7370 ha         1 0UL       0.121000
     22 H6           1.3870     2.8580    -0.8410 h4         1 0UL       0.052100
     23 H7           5.5670    -0.2240    -0.1560 hn         1 0UL       0.481000
     24 H8           5.0470    -1.7860     0.3400 hn         1 0UL       0.481000
     25 H9           0.0400    -1.7160     0.5810 h4         1 0UL       0.171000
@<TRIPOS>BOND
     1     1     2 ar  
     2     1     6 ar  
     3     1    17 1   
     4     2     3 ar  
     5     2    18 1   
     6     3     4 ar  
     7     3    19 1   
     8     4     5 ar  
     9     4    20 1   
    10     5     6 ar  
    11     5    21 1   
    12     6     7 1   
    13     7     8 1   
    14     7    16 2   
    15     8     9 2   
    16     9    10 1   
    17     9    22 1   
    18    10    11 2   
    19    10    15 1   
    20    11    12 1   
    21    12    13 1   
    22    12    14 2   
    23    13    23 1   
    24    13    24 1   
    25    14    15 1   
    26    15    16 1   
    27    16    25 1   
@<TRIPOS>SUBSTRUCTURE
     1 0UL         1 TEMP              0 ****  ****    0 ROOT
