@<TRIPOS>MOLECULE
0UM
   58    60     1     0     0
SMALL
No Charge or Current Charge


@<TRIPOS>ATOM
      1 C4           2.1670     0.4900    -0.0220 ca         1 0UM       0.134500
      2 C5           1.8940     1.6950     0.5790 ca         1 0UM      -0.097600
      3 C6           1.5800     2.7980    -0.2450 ca         1 0UM       0.447900
      4 C8           2.2750     0.3290     2.1970 cc         1 0UM       0.417700
      5 N1           1.5600     2.6820    -1.5810 nb         1 0UM      -0.311000
      6 N3           2.1760     0.3490    -1.3640 nb         1 0UM      -0.216000
      7 C           -2.3720     3.8640    -1.4010 c          1 0UM       0.693000
      8 CA          -2.5010     2.7800    -0.2500 c3         1 0UM       0.011500
      9 N           -3.8520     2.6750     0.4180 n8         1 0UM      -1.005200
     10 CB          -2.0220     1.3920    -0.7610 c3         1 0UM      -0.047400
     11 CAM         -1.7340     0.3550     0.3580 c3         1 0UM      -0.067400
     12 CAY         -1.0470    -0.9440    -0.1480 c3         1 0UM       0.189500
     13 NAR         -1.8830    -1.6910    -1.1220 n7         1 0UM      -0.861400
     14 CAK         -3.1750    -2.2470    -0.6690 c3         1 0UM       0.163800
     15 CAJ         -3.8870    -2.9350    -1.8510 c3         1 0UM      -0.081400
     16 CAA         -5.2420    -3.5570    -1.4600 c3         1 0UM      -0.087100
     17 CBB          0.4540    -2.9620     0.5740 c5         1 0UM       0.163300
     18 OAS          1.5920    -2.3820    -0.1020 os         1 0UM      -0.441000
     19 CAZ          1.1270    -3.7470     1.7400 c5         1 0UM       0.109300
     20 OAF          1.7320    -4.9710     1.3130 oh         1 0UM      -0.707000
     21 CBA          2.2550    -2.7550     2.1870 c5         1 0UM       0.078300
     22 OAG          3.4130    -3.5000     2.6350 oh         1 0UM      -0.697000
     23 CBC          2.5160    -1.8690     0.8900 c5         1 0UM       0.320300
     24 N9           2.3610    -0.4020     1.0030 na         1 0UM      -0.291300
     25 N7           1.9620     1.6190     1.9710 nd         1 0UM      -0.549100
     26 C2           1.8670     1.4590    -2.0770 ca         1 0UM       0.174900
     27 N6           1.2570     4.0240     0.2460 nv         1 0UM      -1.065900
     28 H1           2.4200    -0.1180     3.1730 h5         1 0UM       0.078800
     29 H3          -1.7950     3.0940     0.5300 h1         1 0UM       0.035700
     30 H5          -4.5570     2.5050    -0.3090 hn         1 0UM       0.381000
     31 H7          -2.7570     0.9850    -1.4660 hc         1 0UM       0.049700
     32 H8          -1.0990     1.5410    -1.3340 hc         1 0UM       0.049700
     33 H9          -1.0690     0.8290     1.0900 hc         1 0UM       0.032700
     34 H10         -2.6570     0.1110     0.8950 hc         1 0UM       0.032700
     35 H11         -0.1510    -0.6070    -0.6800 h1         1 0UM       0.066700
     36 H12         -1.3190    -2.4570    -1.5050 hn         1 0UM       0.406000
     37 H14         -3.0260    -2.9870     0.1280 h1         1 0UM       0.027700
     38 H15         -3.8260    -1.4530    -0.2790 h1         1 0UM       0.027700
     39 H16         -4.0490    -2.2030    -2.6510 hc         1 0UM       0.044700
     40 H17         -3.2410    -3.7210    -2.2600 hc         1 0UM       0.044700
     41 H18         -5.1080    -4.3270    -0.6910 hc         1 0UM       0.027033
     42 H19         -5.9230    -2.7910    -1.0700 hc         1 0UM       0.027033
     43 H20         -5.7140    -4.0230    -2.3340 hc         1 0UM       0.027033
     44 H23         -0.0590    -3.6490    -0.1130 h1         1 0UM       0.093700
     45 H24          0.4150    -3.9400     2.5560 h1         1 0UM       0.056700
     46 H25          2.6430    -4.8830     1.7010 ho         1 0UM       0.516000
     47 H26          1.8640    -2.1450     3.0110 h1         1 0UM       0.058700
     48 H27          3.9580    -2.9070     3.2070 ho         1 0UM       0.510000
     49 H28          3.5420    -2.0240     0.5330 h2         1 0UM       0.117700
     50 H29          1.8530     1.3550    -3.1600 h5         1 0UM       0.039100
     51 H30          1.0680     4.0600     1.2430 hn         1 0UM       0.504500
     52 H31          0.6340     4.5880    -0.3310 hn         1 0UM       0.504500
     53 O           -3.2480     3.9140    -2.2550 o          1 0UM      -0.735000
     54 OXT         -1.4740     4.6920    -1.3170 o          1 0UM      -0.735000
     55 CAN         -0.5540    -1.8560     1.0090 c3         1 0UM      -0.138400
     56 H4          -4.1150     3.5980     0.7850 hn         1 0UM       0.381000
     57 H21         -0.1020    -1.2240     1.7800 hc         1 0UM       0.045200
     58 H22         -1.4120    -2.3190     1.5090 hc         1 0UM       0.045200
@<TRIPOS>BOND
     1     1     2 ar  
     2     1     6 ar  
     3     1    24 1   
     4     2     3 ar  
     5     2    25 1   
     6     3     5 ar  
     7     3    27 1   
     8     4    24 1   
     9     4    25 2   
    10     4    28 1   
    11     5    26 ar  
    12     6    26 ar  
    13     7     8 1   
    14     7    53 1   
    15     7    54 1   
    16     8     9 1   
    17     8    10 1   
    18     8    29 1   
    19     9    30 1   
    20     9    56 1   
    21    10    11 1   
    22    10    31 1   
    23    10    32 1   
    24    11    12 1   
    25    11    33 1   
    26    11    34 1   
    27    12    13 1   
    28    12    35 1   
    29    12    55 1   
    30    13    14 1   
    31    13    36 1   
    32    14    15 1   
    33    14    37 1   
    34    14    38 1   
    35    15    16 1   
    36    15    39 1   
    37    15    40 1   
    38    16    41 1   
    39    16    42 1   
    40    16    43 1   
    41    17    18 1   
    42    17    19 1   
    43    17    44 1   
    44    17    55 1   
    45    18    23 1   
    46    19    20 1   
    47    19    21 1   
    48    19    45 1   
    49    20    46 1   
    50    21    22 1   
    51    21    23 1   
    52    21    47 1   
    53    22    48 1   
    54    23    24 1   
    55    23    49 1   
    56    26    50 1   
    57    27    51 1   
    58    27    52 1   
    59    55    57 1   
    60    55    58 1   
@<TRIPOS>SUBSTRUCTURE
     1 0UM         1 TEMP              0 ****  ****    0 ROOT
