@<TRIPOS>MOLECULE
0UM
   58    60     1     0     0
SMALL
bcc


@<TRIPOS>ATOM
      1 C4           3.8890     0.3570    -0.2560 ca         1 0UM       0.462800
      2 C5           3.8620     1.7330    -0.0880 ca         1 0UM      -0.228200
      3 C6           5.0240     2.4320    -0.4650 ca         1 0UM       0.776200
      4 C8           1.9830     1.0360     0.5710 cc         1 0UM       0.417700
      5 N1           6.0500     1.7240    -0.9500 nb         1 0UM      -0.837000
      6 N3           4.9020    -0.3600    -0.7370 nb         1 0UM      -0.742000
      7 C           -5.1640     3.2050    -0.4200 c          1 0UM       0.903600
      8 CA          -4.5190     2.2170     0.5830 c3         1 0UM       0.011500
      9 N           -5.4550     1.4450     1.3870 n8         1 0UM      -0.894800
     10 CB          -3.5850     1.2700    -0.1750 c3         1 0UM      -0.047400
     11 CAM         -2.7570     0.3720     0.7340 c3         1 0UM      -0.067400
     12 CAY         -1.7780    -0.5320    -0.0150 c3         1 0UM       0.189500
     13 NAR         -2.4430    -1.2890    -1.0650 n7         1 0UM      -0.806200
     14 CAK         -3.4210    -2.2700    -0.6350 c3         1 0UM       0.163800
     15 CAJ         -4.1060    -2.9130    -1.8310 c3         1 0UM      -0.081400
     16 CAA         -5.1390    -3.9500    -1.4160 c3         1 0UM      -0.087100
     17 CBB          0.0440    -2.3000     0.3740 c5         1 0UM       0.140100
     18 OAS          0.9750    -1.5540    -0.4300 os         1 0UM      -0.394600
     19 CAZ          0.9040    -3.0190     1.4030 c5         1 0UM       0.086100
     20 OAF          1.4300    -4.1850     0.8220 oh         1 0UM      -0.584800
     21 CBA          2.0060    -1.9830     1.6310 c5         1 0UM       0.055100
     22 OAG          3.2090    -2.4920     2.1240 oh         1 0UM      -0.574800
     23 CBC          2.2120    -1.4500     0.2120 c5         1 0UM       0.267800
     24 N9           2.6700    -0.0800     0.1750 na         1 0UM      -0.262000
     25 N7           2.6580     2.1370     0.4280 nd         1 0UM      -0.549100
     26 C2           5.9330     0.4030    -1.0570 ca         1 0UM       0.700900
     27 N6           5.1390     3.7550    -0.3460 nv         1 0UM      -0.955500
     28 H1           0.9760     0.9790     0.9570 h5         1 0UM       0.078800
     29 H3          -3.9020     2.8080     1.2720 h1         1 0UM       0.035700
     30 H5          -6.0830     0.9610     0.7550 hn         1 0UM       0.325800
     31 H7          -4.1780     0.6540    -0.8590 hc         1 0UM       0.049700
     32 H8          -2.9140     1.8630    -0.8020 hc         1 0UM       0.049700
     33 H9          -2.1780     0.9990     1.4210 hc         1 0UM       0.032700
     34 H10         -3.4190    -0.2240     1.3680 hc         1 0UM       0.032700
     35 H11         -1.0630     0.1190    -0.5300 h1         1 0UM       0.066700
     36 H12         -1.7540    -1.7360    -1.6570 hn         1 0UM       0.350800
     37 H14         -2.9960    -3.0650    -0.0000 h1         1 0UM       0.027700
     38 H15         -4.1760    -1.7660    -0.0240 h1         1 0UM       0.027700
     39 H16         -4.5770    -2.1320    -2.4330 hc         1 0UM       0.044700
     40 H17         -3.3510    -3.3850    -2.4700 hc         1 0UM       0.044700
     41 H18         -4.6840    -4.7500    -0.8300 hc         1 0UM       0.027033
     42 H19         -5.9240    -3.5010    -0.8040 hc         1 0UM       0.027033
     43 H20         -5.6170    -4.4050    -2.2840 hc         1 0UM       0.027033
     44 H23         -0.4500    -3.0250    -0.2810 h1         1 0UM       0.093700
     45 H24          0.3450    -3.2370     2.3220 h1         1 0UM       0.056700
     46 H25          2.2090    -4.4460     1.3260 ho         1 0UM       0.417000
     47 H26          1.6160    -1.1830     2.2730 h1         1 0UM       0.058700
     48 H27          3.1500    -2.5510     3.0830 ho         1 0UM       0.411000
     49 H28          2.9790    -2.0360    -0.3040 h2         1 0UM       0.117700
     50 H29          6.8000    -0.1100    -1.4590 h5         1 0UM       0.039100
     51 H30          4.3580     4.3180    -0.0590 hn         1 0UM       0.449300
     52 H31          5.9590     4.2230    -0.6920 hn         1 0UM       0.449300
     53 O           -6.3770     3.0670    -0.6720 o          1 0UM      -0.840300
     54 OXT         -4.3970     4.0590    -0.9160 o          1 0UM      -0.840300
     55 CAN         -0.9950    -1.3840     0.9980 c3         1 0UM      -0.138400
     56 H4          -6.0550     2.0860     1.8920 hn         1 0UM       0.325800
     57 H21         -0.5220    -0.7180     1.7280 hc         1 0UM       0.045200
     58 H22         -1.6870    -2.0050     1.5750 hc         1 0UM       0.045200
@<TRIPOS>BOND
     1     1     2 ar  
     2     1     6 ar  
     3     1    24 1   
     4     2     3 ar  
     5     2    25 1   
     6     3     5 ar  
     7     3    27 1   
     8     4    24 1   
     9     4    25 2   
    10     4    28 1   
    11     5    26 ar  
    12     6    26 ar  
    13     7     8 1   
    14     7    53 1   
    15     7    54 1   
    16     8     9 1   
    17     8    10 1   
    18     8    29 1   
    19     9    30 1   
    20     9    56 1   
    21    10    11 1   
    22    10    31 1   
    23    10    32 1   
    24    11    12 1   
    25    11    33 1   
    26    11    34 1   
    27    12    13 1   
    28    12    35 1   
    29    12    55 1   
    30    13    14 1   
    31    13    36 1   
    32    14    15 1   
    33    14    37 1   
    34    14    38 1   
    35    15    16 1   
    36    15    39 1   
    37    15    40 1   
    38    16    41 1   
    39    16    42 1   
    40    16    43 1   
    41    17    18 1   
    42    17    19 1   
    43    17    44 1   
    44    17    55 1   
    45    18    23 1   
    46    19    20 1   
    47    19    21 1   
    48    19    45 1   
    49    20    46 1   
    50    21    22 1   
    51    21    23 1   
    52    21    47 1   
    53    22    48 1   
    54    23    24 1   
    55    23    49 1   
    56    26    50 1   
    57    27    51 1   
    58    27    52 1   
    59    55    57 1   
    60    55    58 1   
@<TRIPOS>SUBSTRUCTURE
     1 0UM         1 TEMP              0 ****  ****    0 ROOT
