@<TRIPOS>MOLECULE
0UN
   62    65     1     0     0
SMALL
No Charge or Current Charge


@<TRIPOS>ATOM
      1 CAT         -6.5090     0.8710    -1.0470 c6         1 0UN       0.197800
      2 CAR         -7.8210     1.5210    -0.4960 c6         1 0UN       0.157800
      3 NBN         -8.6820     0.5520     0.2490 n3         1 0UN      -0.716600
      4 CAB         -9.9400     1.1600     0.7320 c3         1 0UN       0.153100
      5 CAS         -7.8910    -0.0870     1.3460 c6         1 0UN       0.157800
      6 CAU         -6.5810    -0.7700     0.8320 c6         1 0UN       0.197800
      7 NBO         -5.7310     0.1560     0.0150 nh         1 0UN      -0.789400
      8 CBH         -4.3500    -0.0810    -0.1560 ca         1 0UN       0.323000
      9 CAO         -3.4870     0.9990    -0.3910 ca         1 0UN      -0.229000
     10 CBK         -2.1010     0.7900    -0.5670 ca         1 0UN       0.143100
     11 OBA         -1.2320     1.8460    -0.8090 os         1 0UN      -0.346100
     12 CAA         -1.6780     3.2110    -0.8960 c3         1 0UN       0.150900
     13 CAK         -3.8190    -1.3820    -0.1020 ca         1 0UN      -0.194000
     14 CAL         -2.4410    -1.6030    -0.2750 ca         1 0UN      -0.039000
     15 CBJ         -1.5620    -0.5220    -0.4950 ca         1 0UN       0.230000
     16 NAZ         -0.1730    -0.6980    -0.6830 nu         1 0UN      -0.913900
     17 C2           0.7590    -1.6720    -0.3640 ca         1 0UN       0.425900
     18 N3           1.9890    -1.4180    -0.8260 nb         1 0UN      -0.316000
     19 N1           0.3760    -2.7340     0.3660 nb         1 0UN      -0.251000
     20 C6           1.3290    -3.6410     0.6530 ca         1 0UN       0.177900
     21 C5           2.6530    -3.4770     0.2160 ca         1 0UN      -0.088000
     22 Cl5          3.8820    -4.6830     0.6060 cl         1 0UN      -0.160000
     23 C4           2.9500    -2.3190    -0.5310 ca         1 0UN       0.407300
     24 OBB          4.2390    -2.1350    -0.9890 os         1 0UN      -0.351400
     25 CBG          4.7640    -0.8940    -1.2650 ca         1 0UN       0.135100
     26 CAN          4.6390     0.1650    -0.3450 ca         1 0UN      -0.127000
     27 CAJ          5.4660    -0.7070    -2.4650 ca         1 0UN      -0.129000
     28 CAH          6.0240     0.5460    -2.7610 ca         1 0UN      -0.075000
     29 CAI          5.8840     1.6080    -1.8510 ca         1 0UN      -0.169000
     30 CBF          5.1950     1.4310    -0.6360 ca         1 0UN      -0.010000
     31 NAY          5.1030     2.5520     0.2350 ns         1 0UN      -0.144000
     32 CBD          4.5070     2.7260     1.4770 c          1 0UN       0.608300
     33 OAE          3.9020     1.8530     2.0860 o          1 0UN      -0.576100
     34 CAQ          4.6650     4.1080     2.0290 ce         1 0UN      -0.307200
     35 CAP          4.1620     4.5200     3.2210 c2         1 0UN      -0.223000
     36 HAT         -6.7780     0.1620    -1.8440 h1         1 0UN       0.044700
     37 HATA        -5.9030     1.6610    -1.5110 h1         1 0UN       0.044700
     38 HAR         -7.5420     2.3580     0.1620 h1         1 0UN       0.039450
     39 HARA        -8.3770     1.9530    -1.3410 h1         1 0UN       0.039450
     40 HAB        -10.5150     1.5770    -0.1050 h1         1 0UN       0.031367
     41 HABA       -10.5660     0.4090     1.2320 h1         1 0UN       0.031367
     42 HABB        -9.7360     1.9690     1.4460 h1         1 0UN       0.031367
     43 HAS         -7.6150     0.6680     2.0970 h1         1 0UN       0.039450
     44 HASA        -8.4990    -0.8440     1.8620 h1         1 0UN       0.039450
     45 HAU         -6.0180    -1.1330     1.7040 h1         1 0UN       0.044700
     46 HAUA        -6.8570    -1.6480     0.2300 h1         1 0UN       0.044700
     47 HAO         -3.9080     1.9970    -0.4230 ha         1 0UN       0.121000
     48 HAA         -2.4020     3.3340    -1.7110 h1         1 0UN       0.041700
     49 HAAA        -2.1460     3.5300     0.0440 h1         1 0UN       0.041700
     50 HAAB        -0.8280     3.8760    -1.0940 h1         1 0UN       0.041700
     51 HAK         -4.4710    -2.2350     0.0560 ha         1 0UN       0.119000
     52 HAL         -2.0740    -2.6220    -0.2550 ha         1 0UN       0.132000
     53 HNAZ         0.2760     0.1470    -1.0400 hn         1 0UN       0.522000
     54 H6           1.0260    -4.5060     1.2400 h4         1 0UN       0.034100
     55 HAN          4.1120    -0.0180     0.5840 ha         1 0UN       0.163000
     56 HAJ          5.5720    -1.5320    -3.1650 ha         1 0UN       0.131000
     57 HAH          6.5630     0.6950    -3.6940 ha         1 0UN       0.116000
     58 HAI          6.3210     2.5750    -2.0930 ha         1 0UN       0.110000
     59 HNAY         5.5600     3.3810    -0.1210 hn         1 0UN       0.151000
     60 HAQ          5.2250     4.8050     1.4060 ha         1 0UN       0.177000
     61 HAP          4.3030     5.5400     3.5810 ha         1 0UN       0.178500
     62 HAPA         3.5960     3.8520     3.8730 ha         1 0UN       0.178500
@<TRIPOS>BOND
     1     1     2 1   
     2     1     7 1   
     3     1    36 1   
     4     1    37 1   
     5     2     3 1   
     6     2    38 1   
     7     2    39 1   
     8     3     4 1   
     9     3     5 1   
    10     4    40 1   
    11     4    41 1   
    12     4    42 1   
    13     5     6 1   
    14     5    43 1   
    15     5    44 1   
    16     6     7 1   
    17     6    45 1   
    18     6    46 1   
    19     7     8 1   
    20     8     9 ar  
    21     8    13 ar  
    22     9    10 ar  
    23     9    47 1   
    24    10    11 1   
    25    10    15 ar  
    26    11    12 1   
    27    12    48 1   
    28    12    49 1   
    29    12    50 1   
    30    13    14 ar  
    31    13    51 1   
    32    14    15 ar  
    33    14    52 1   
    34    15    16 1   
    35    16    17 1   
    36    16    53 1   
    37    17    18 ar  
    38    17    19 ar  
    39    18    23 ar  
    40    19    20 ar  
    41    20    21 ar  
    42    20    54 1   
    43    21    22 1   
    44    21    23 ar  
    45    23    24 1   
    46    24    25 1   
    47    25    26 ar  
    48    25    27 ar  
    49    26    30 ar  
    50    26    55 1   
    51    27    28 ar  
    52    27    56 1   
    53    28    29 ar  
    54    28    57 1   
    55    29    30 ar  
    56    29    58 1   
    57    30    31 1   
    58    31    32 1   
    59    31    59 1   
    60    32    33 2   
    61    32    34 1   
    62    34    35 2   
    63    34    60 1   
    64    35    61 1   
    65    35    62 1   
@<TRIPOS>SUBSTRUCTURE
     1 0UN         1 TEMP              0 ****  ****    0 ROOT
