@<TRIPOS>MOLECULE
0UN
   62    65     1     0     0
SMALL
bcc


@<TRIPOS>ATOM
      1 CAT         -6.4370     1.2380    -0.7250 c6         1 0UN       0.197800
      2 CAR         -7.8070     1.5300    -0.1500 c6         1 0UN       0.157800
      3 NBN         -8.6570     0.3620    -0.2400 n3         1 0UN      -0.716600
      4 CAB         -9.9950     0.6310     0.2320 c3         1 0UN       0.153100
      5 CAS         -8.0480    -0.7460     0.4650 c6         1 0UN       0.157800
      6 CAU         -6.6790    -1.0710    -0.1050 c6         1 0UN       0.197800
      7 NBO         -5.8260     0.0990    -0.0520 nh         1 0UN      -0.651000
      8 CBH         -4.4540    -0.0810    -0.2250 ca         1 0UN       0.184600
      9 CAO         -3.5890     1.0020    -0.0020 ca         1 0UN      -0.247000
     10 CBK         -2.2170     0.8650    -0.1320 ca         1 0UN       0.143100
     11 OBA         -1.3370     1.8610     0.0780 os         1 0UN      -0.322900
     12 CAA         -1.8240     3.1390     0.4370 c3         1 0UN       0.127700
     13 CAK         -3.8920    -1.3070    -0.5840 ca         1 0UN      -0.212000
     14 CAL         -2.5150    -1.4360    -0.7220 ca         1 0UN      -0.057000
     15 CBJ         -1.6600    -0.3730    -0.5000 ca         1 0UN       0.091600
     16 NAZ         -0.2690    -0.4610    -0.6640 nu         1 0UN      -0.720300
     17 C2           0.5530    -1.3960    -0.1420 ca         1 0UN       0.951900
     18 N3           1.8580    -1.2030    -0.3850 nb         1 0UN      -0.842000
     19 N1           0.0420    -2.4100     0.5500 nb         1 0UN      -0.777000
     20 C6           0.9090    -3.2920     1.0280 ca         1 0UN       0.506200
     21 C5           2.2690    -3.1890     0.8340 ca         1 0UN      -0.310200
     22 CL5          3.3800    -4.3440     1.4550 cl         1 0UN      -0.068400
     23 C4           2.6970    -2.0800     0.0950 ca         1 0UN       0.735600
     24 OBB          4.0060    -1.9400    -0.1080 os         1 0UN      -0.351400
     25 CBG          4.4640    -0.8320    -0.7990 ca         1 0UN       0.135100
     26 CAN          4.7510     0.3130    -0.0780 ca         1 0UN      -0.145000
     27 CAJ          4.6780    -0.9350    -2.1600 ca         1 0UN      -0.147000
     28 CAH          5.2130     0.1650    -2.8170 ca         1 0UN      -0.093000
     29 CAI          5.5120     1.3260    -2.1280 ca         1 0UN      -0.187000
     30 CBF          5.2830     1.4130    -0.7510 ca         1 0UN       0.082600
     31 NAY          5.6270     2.6120    -0.1280 ns         1 0UN      -0.470100
     32 CBD          5.3440     3.0340     1.1340 c          1 0UN       0.675300
     33 OAE          4.7240     2.3740     1.9500 o          1 0UN      -0.576100
     34 CAQ          5.8650     4.3940     1.4240 ce         1 0UN      -0.257200
     35 CAP          5.6380     4.9890     2.5890 c2         1 0UN      -0.123000
     36 HAT         -6.5290     1.0420    -1.8040 h1         1 0UN       0.044700
     37 HATA        -5.8170     2.1250    -0.6100 h1         1 0UN       0.044700
     38 HAR         -7.6970     1.8770     0.8930 h1         1 0UN       0.039450
     39 HARA        -8.2580     2.3480    -0.7160 h1         1 0UN       0.039450
     40 HAB        -10.4380     1.4430    -0.3470 h1         1 0UN       0.031367
     41 HABA       -10.6210    -0.2530     0.1040 h1         1 0UN       0.031367
     42 HABB       -10.0340     0.9180     1.2950 h1         1 0UN       0.031367
     43 HAS         -7.9470    -0.5370     1.5440 h1         1 0UN       0.039450
     44 HASA        -8.6860    -1.6280     0.3680 h1         1 0UN       0.039450
     45 HAU         -6.2400    -1.8690     0.4940 h1         1 0UN       0.044700
     46 HAUA        -6.7920    -1.4500    -1.1320 h1         1 0UN       0.044700
     47 HAO         -4.0030     1.9470     0.3190 ha         1 0UN       0.139000
     48 HAA         -2.4820     3.5550    -0.3300 h1         1 0UN       0.041700
     49 HAAA        -2.3610     3.1160     1.3890 h1         1 0UN       0.041700
     50 HAAB        -0.9540     3.7810     0.5410 h1         1 0UN       0.041700
     51 HAK         -4.5110    -2.1690    -0.7880 ha         1 0UN       0.137000
     52 HAL         -2.1080    -2.3900    -1.0260 ha         1 0UN       0.150000
     53 HNAZ         0.2010     0.3250    -1.0870 hn         1 0UN       0.466800
     54 H6           0.5040    -4.1220     1.5960 h4         1 0UN       0.034100
     55 HAN          4.5690     0.3360     0.9850 ha         1 0UN       0.181000
     56 HAJ          4.4400    -1.8460    -2.6920 ha         1 0UN       0.149000
     57 HAH          5.3960     0.1170    -3.8820 ha         1 0UN       0.134000
     58 HAI          5.9280     2.1740    -2.6570 ha         1 0UN       0.128000
     59 HNAY         6.1170     3.2680    -0.7170 hn         1 0UN       0.317500
     60 HAQ          6.4430     4.8970     0.6570 ha         1 0UN       0.127000
     61 HAP          6.0200     5.9790     2.7930 ha         1 0UN       0.128500
     62 HAPA         5.0640     4.5110     3.3730 ha         1 0UN       0.128500
@<TRIPOS>BOND
     1     1     2 1   
     2     1     7 1   
     3     1    36 1   
     4     1    37 1   
     5     2     3 1   
     6     2    38 1   
     7     2    39 1   
     8     3     4 1   
     9     3     5 1   
    10     4    40 1   
    11     4    41 1   
    12     4    42 1   
    13     5     6 1   
    14     5    43 1   
    15     5    44 1   
    16     6     7 1   
    17     6    45 1   
    18     6    46 1   
    19     7     8 1   
    20     8     9 ar  
    21     8    13 ar  
    22     9    10 ar  
    23     9    47 1   
    24    10    11 1   
    25    10    15 ar  
    26    11    12 1   
    27    12    48 1   
    28    12    49 1   
    29    12    50 1   
    30    13    14 ar  
    31    13    51 1   
    32    14    15 ar  
    33    14    52 1   
    34    15    16 1   
    35    16    17 1   
    36    16    53 1   
    37    17    18 ar  
    38    17    19 ar  
    39    18    23 ar  
    40    19    20 ar  
    41    20    21 ar  
    42    20    54 1   
    43    21    22 1   
    44    21    23 ar  
    45    23    24 1   
    46    24    25 1   
    47    25    26 ar  
    48    25    27 ar  
    49    26    30 ar  
    50    26    55 1   
    51    27    28 ar  
    52    27    56 1   
    53    28    29 ar  
    54    28    57 1   
    55    29    30 ar  
    56    29    58 1   
    57    30    31 1   
    58    31    32 1   
    59    31    59 1   
    60    32    33 2   
    61    32    34 1   
    62    34    35 2   
    63    34    60 1   
    64    35    61 1   
    65    35    62 1   
@<TRIPOS>SUBSTRUCTURE
     1 0UN         1 TEMP              0 ****  ****    0 ROOT
