@<TRIPOS>MOLECULE
0UP
   65    68     1     0     0
SMALL
No Charge or Current Charge


@<TRIPOS>ATOM
      1 C1           2.5280     3.3790     0.9200 ca         1 0UP      -0.083000
      2 C2          -3.1230     2.1130     0.3750 ca         1 0UP      -0.105000
      3 C3           2.6820     2.0030     1.1660 ca         1 0UP      -0.111000
      4 C4          -4.1900     2.4120    -0.4890 ca         1 0UP      -0.126000
      5 C5           2.5550     3.8570    -0.4010 ca         1 0UP      -0.142000
      6 C6          -3.7870    -0.2310     0.3850 ca         1 0UP      -0.136000
      7 C7           2.8950     1.5870    -1.2150 ca         1 0UP      -0.142000
      8 C8          -2.9170     0.7910     0.8150 ca         1 0UP      -0.095300
      9 C9           2.8550     1.1010     0.1020 ca         1 0UP       0.287000
     10 C10         -5.0550     1.3920    -0.9140 ca         1 0UP       0.118100
     11 C11         -4.8660     0.0650    -0.4780 ca         1 0UP       0.051100
     12 C12          2.7430     2.9580    -1.4620 ca         1 0UP       0.176000
     13 C13          0.7640    -0.9310    -0.8080 c6         1 0UP      -0.075400
     14 C14          1.3200    -1.8590     1.4200 c6         1 0UP      -0.074400
     15 C15          2.8280    -2.4610    -0.5970 c5         1 0UP       0.164800
     16 C16         -0.2150     0.0550    -0.1330 c6         1 0UP       0.168800
     17 C17          0.3600    -0.8390     2.0880 c6         1 0UP       0.193500
     18 C18          1.9600    -1.3290     0.1050 c5         1 0UP       0.270200
     19 C19         -0.1400    -1.4290     3.4390 c3         1 0UP      -0.095100
     20 C20         -6.4230    -2.2350     0.9700 c3         1 0UP      -0.108100
     21 C21         -6.6190    -3.0710    -1.4410 c3         1 0UP      -0.108100
     22 C24         -5.7870    -2.2510    -0.4380 c3         1 0UP       0.187300
     23 N25          2.9910    -0.2650     0.3640 nh         1 0UP      -0.827300
     24 N26          4.1050    -2.4680     0.1470 n3         1 0UP      -0.716500
     25 N27         -0.7530    -0.4730     1.1530 n3         1 0UP      -0.737600
     26 O30         -6.0900     1.6820    -1.7560 oh         1 0UP      -0.535100
     27 O31         -5.7480    -0.9010    -0.9410 os         1 0UP      -0.384100
     28 F32          2.7770     3.4180    -2.7320 f          1 0UP      -0.174000
     29 S33          4.5530    -0.9020     0.5910 s6         1 0UP       1.268200
     30 H1           2.3880     4.0700     1.7500 ha         1 0UP       0.124000
     31 H2          -2.4550     2.9080     0.6980 ha         1 0UP       0.114000
     32 H3           2.6640     1.6300     2.1860 ha         1 0UP       0.136000
     33 H4          -4.3450     3.4330    -0.8300 ha         1 0UP       0.130000
     34 H5           2.4380     4.9190    -0.6030 ha         1 0UP       0.136000
     35 H6          -3.5990    -1.2450     0.7260 ha         1 0UP       0.133000
     36 H7           3.0500     0.9030    -2.0420 ha         1 0UP       0.142000
     37 H8           0.2060    -1.8350    -1.0870 hc         1 0UP       0.055200
     38 H9           1.1270    -0.5050    -1.7510 hc         1 0UP       0.055200
     39 H10          2.1140    -2.1340     2.1260 hc         1 0UP       0.062200
     40 H11          0.7690    -2.7850     1.2110 hc         1 0UP       0.062200
     41 H12          2.3280    -3.4390    -0.5800 h1         1 0UP       0.065200
     42 H13          3.0010    -2.1970    -1.6500 h1         1 0UP       0.065200
     43 H14          0.2790     1.0230     0.0310 h1         1 0UP       0.045200
     44 H15         -1.0330     0.2430    -0.8440 h1         1 0UP       0.045200
     45 H16          0.9410     0.0620     2.3330 h1         1 0UP       0.032700
     46 H17          0.6960    -1.8040     4.0400 hc         1 0UP       0.041700
     47 H18         -0.6480    -0.6750     4.0510 hc         1 0UP       0.041700
     48 H19         -0.8340    -2.2630     3.2770 hc         1 0UP       0.041700
     49 H20         -5.8090    -1.6690     1.6790 hc         1 0UP       0.046533
     50 H21         -7.4210    -1.7810     0.9400 hc         1 0UP       0.046533
     51 H22         -6.5230    -3.2560     1.3550 hc         1 0UP       0.046533
     52 H23         -7.6350    -2.6670    -1.5300 hc         1 0UP       0.046533
     53 H24         -6.1500    -3.0550    -2.4320 hc         1 0UP       0.046533
     54 H25         -6.6910    -4.1160    -1.1160 hc         1 0UP       0.046533
     55 H26          5.5360    -2.9370    -1.3580 h1         1 0UP       0.054033
     56 H27          6.0320    -3.3550     0.3000 h1         1 0UP       0.054033
     57 H28          4.8210    -4.3450    -0.5410 h1         1 0UP       0.054033
     58 H29         -1.2570     1.3920     2.0510 h1         1 0UP       0.041200
     59 H30         -2.1930     0.0230     2.6520 h1         1 0UP       0.041200
     60 H31         -4.7810    -2.6890    -0.3940 h1         1 0UP       0.044700
     61 H33         -6.5520     0.8290    -1.9200 ho         1 0UP       0.480000
     62 O28          5.4270    -0.3290    -0.4360 o          1 0UP      -0.543000
     63 C22          5.1790    -3.3180    -0.3920 c3         1 0UP       0.178100
     64 C23         -1.7520     0.4590     1.7470 c3         1 0UP       0.223100
     65 O29          4.8560    -0.8660     2.0230 o          1 0UP      -0.543000
@<TRIPOS>BOND
     1     1     3 ar  
     2     1     5 ar  
     3     1    30 1   
     4     2     4 ar  
     5     2     8 ar  
     6     2    31 1   
     7     3     9 ar  
     8     3    32 1   
     9     4    10 ar  
    10     4    33 1   
    11     5    12 ar  
    12     5    34 1   
    13     6     8 ar  
    14     6    11 ar  
    15     6    35 1   
    16     7     9 ar  
    17     7    12 ar  
    18     7    36 1   
    19     8    64 1   
    20     9    23 1   
    21    10    11 ar  
    22    10    26 1   
    23    11    27 1   
    24    12    28 1   
    25    13    16 1   
    26    13    18 1   
    27    13    37 1   
    28    13    38 1   
    29    14    17 1   
    30    14    18 1   
    31    14    39 1   
    32    14    40 1   
    33    15    18 1   
    34    15    24 1   
    35    15    41 1   
    36    15    42 1   
    37    16    25 1   
    38    16    43 1   
    39    16    44 1   
    40    17    19 1   
    41    17    25 1   
    42    17    45 1   
    43    18    23 1   
    44    19    46 1   
    45    19    47 1   
    46    19    48 1   
    47    20    22 1   
    48    20    49 1   
    49    20    50 1   
    50    20    51 1   
    51    21    22 1   
    52    21    52 1   
    53    21    53 1   
    54    21    54 1   
    55    22    27 1   
    56    22    60 1   
    57    23    29 1   
    58    24    29 1   
    59    24    63 1   
    60    25    64 1   
    61    26    61 1   
    62    29    62 2   
    63    29    65 2   
    64    55    63 1   
    65    56    63 1   
    66    57    63 1   
    67    58    64 1   
    68    59    64 1   
@<TRIPOS>SUBSTRUCTURE
     1 0UP         1 TEMP              0 ****  ****    0 ROOT
