@<TRIPOS>MOLECULE
0UP
   65    68     1     0     0
SMALL
abcg2


@<TRIPOS>ATOM
      1 C1           3.1220     3.1920     0.6060 ca         1 0UP      -0.083000
      2 C2          -3.7130     2.3590     0.9780 ca         1 0UP      -0.105000
      3 C3           3.0160     1.8420     0.9090 ca         1 0UP      -0.111000
      4 C4          -4.9370     2.4130     0.3170 ca         1 0UP      -0.126000
      5 C5           3.0340     3.6310    -0.7070 ca         1 0UP      -0.142000
      6 C6          -3.6220    -0.0060     0.6180 ca         1 0UP      -0.136000
      7 C7           2.7540     1.3400    -1.4370 ca         1 0UP      -0.142000
      8 C8          -3.0490     1.1550     1.1390 ca         1 0UP      -0.095300
      9 C9           2.8090     0.9200    -0.1110 ca         1 0UP       0.287000
     10 C10         -5.5000     1.2640    -0.2070 ca         1 0UP       0.118100
     11 C11         -4.8280     0.0390    -0.0600 ca         1 0UP       0.051100
     12 C12          2.8540     2.6900    -1.7030 ca         1 0UP       0.176000
     13 C13          0.3290    -0.7220    -0.6140 c6         1 0UP      -0.075400
     14 C14          0.9690    -1.5050     1.6500 c6         1 0UP      -0.074400
     15 C15          1.9760    -2.6060    -0.3810 c5         1 0UP       0.164800
     16 C16         -0.3830     0.4360     0.0620 c6         1 0UP       0.168800
     17 C17          0.2520    -0.3000     2.2560 c6         1 0UP       0.193500
     18 C18          1.4660    -1.2950     0.2180 c5         1 0UP       0.270200
     19 C19         -0.1990    -0.6710     3.6630 c3         1 0UP      -0.095100
     20 C20         -4.8270    -3.1880     0.2560 c3         1 0UP      -0.108100
     21 C21         -5.3320    -2.8030    -2.1780 c3         1 0UP      -0.108100
     22 C24         -4.7350    -2.2210    -0.9120 c3         1 0UP       0.187300
     23 N25          2.6930    -0.4560     0.2020 nh         1 0UP      -0.827300
     24 N26          3.2970    -2.7900     0.1990 n3         1 0UP      -0.716500
     25 N27         -0.8610     0.0650     1.3820 n3         1 0UP      -0.737600
     26 O30         -6.6770     1.3390    -0.8660 oh         1 0UP      -0.535100
     27 O31         -5.4550    -1.0150    -0.6300 os         1 0UP      -0.384100
     28 F32          2.7880     3.1010    -2.9780 f          1 0UP      -0.174000
     29 S33          4.0900    -1.3330     0.1840 s6         1 0UP       1.268200
     30 H1           3.2720     3.9110     1.3990 ha         1 0UP       0.124000
     31 H2          -3.2790     3.2740     1.3640 ha         1 0UP       0.114000
     32 H3           3.0770     1.5020     1.9330 ha         1 0UP       0.136000
     33 H4          -5.4480     3.3590     0.1870 ha         1 0UP       0.130000
     34 H5           3.1100     4.6820    -0.9510 ha         1 0UP       0.136000
     35 H6          -3.0840    -0.9380     0.7400 ha         1 0UP       0.133000
     36 H7           2.6340     0.6280    -2.2420 ha         1 0UP       0.142000
     37 H8          -0.3940    -1.5310    -0.7510 hc         1 0UP       0.055200
     38 H9           0.6680    -0.4350    -1.6110 hc         1 0UP       0.055200
     39 H10          1.8050    -1.7950     2.2910 hc         1 0UP       0.062200
     40 H11          0.2630    -2.3410     1.6460 hc         1 0UP       0.062200
     41 H12          1.3410    -3.4460    -0.1010 h1         1 0UP       0.065200
     42 H13          2.0100    -2.5480    -1.4780 h1         1 0UP       0.065200
     43 H14          0.2660     1.3250     0.1080 h1         1 0UP       0.045200
     44 H15         -1.2370     0.7150    -0.5580 h1         1 0UP       0.045200
     45 H16          0.9690     0.5360     2.3410 h1         1 0UP       0.032700
     46 H17          0.6330    -1.1170     4.2080 hc         1 0UP       0.041700
     47 H18         -0.5340     0.1860     4.2460 hc         1 0UP       0.041700
     48 H19         -1.0100    -1.4010     3.6290 hc         1 0UP       0.041700
     49 H20         -4.3920    -2.7830     1.1700 hc         1 0UP       0.046533
     50 H21         -5.8660    -3.4510     0.4610 hc         1 0UP       0.046533
     51 H22         -4.2900    -4.1060     0.0140 hc         1 0UP       0.046533
     52 H23         -6.3840    -3.0580    -2.0400 hc         1 0UP       0.046533
     53 H24         -5.2510    -2.1040    -3.0110 hc         1 0UP       0.046533
     54 H25         -4.8000    -3.7130    -2.4510 hc         1 0UP       0.046533
     55 H26          4.2340    -3.9330    -1.3390 h1         1 0UP       0.054033
     56 H27          5.0440    -3.9470     0.2430 h1         1 0UP       0.054033
     57 H28          3.5460    -4.8370     0.0240 h1         1 0UP       0.054033
     58 H29         -1.2850     2.0790     1.9320 h1         1 0UP       0.041200
     59 H30         -1.9910     0.8340     2.9430 h1         1 0UP       0.041200
     60 H31         -3.6860    -1.9700    -1.1030 h1         1 0UP       0.044700
     61 H33         -6.9150     0.4660    -1.2010 ho         1 0UP       0.480000
     62 O28          4.8330    -1.0930    -1.0470 o          1 0UP      -0.543000
     63 C22          4.0770    -3.9300    -0.2570 c3         1 0UP       0.178100
     64 C23         -1.7510     1.0790     1.9070 c3         1 0UP       0.223100
     65 O29          4.8590    -1.1790     1.4070 o          1 0UP      -0.543000
@<TRIPOS>BOND
     1     1     3 ar  
     2     1     5 ar  
     3     1    30 1   
     4     2     4 ar  
     5     2     8 ar  
     6     2    31 1   
     7     3     9 ar  
     8     3    32 1   
     9     4    10 ar  
    10     4    33 1   
    11     5    12 ar  
    12     5    34 1   
    13     6     8 ar  
    14     6    11 ar  
    15     6    35 1   
    16     7     9 ar  
    17     7    12 ar  
    18     7    36 1   
    19     8    64 1   
    20     9    23 1   
    21    10    11 ar  
    22    10    26 1   
    23    11    27 1   
    24    12    28 1   
    25    13    16 1   
    26    13    18 1   
    27    13    37 1   
    28    13    38 1   
    29    14    17 1   
    30    14    18 1   
    31    14    39 1   
    32    14    40 1   
    33    15    18 1   
    34    15    24 1   
    35    15    41 1   
    36    15    42 1   
    37    16    25 1   
    38    16    43 1   
    39    16    44 1   
    40    17    19 1   
    41    17    25 1   
    42    17    45 1   
    43    18    23 1   
    44    19    46 1   
    45    19    47 1   
    46    19    48 1   
    47    20    22 1   
    48    20    49 1   
    49    20    50 1   
    50    20    51 1   
    51    21    22 1   
    52    21    52 1   
    53    21    53 1   
    54    21    54 1   
    55    22    27 1   
    56    22    60 1   
    57    23    29 1   
    58    24    29 1   
    59    24    63 1   
    60    25    64 1   
    61    26    61 1   
    62    29    62 2   
    63    29    65 2   
    64    55    63 1   
    65    56    63 1   
    66    57    63 1   
    67    58    64 1   
    68    59    64 1   
@<TRIPOS>SUBSTRUCTURE
     1 0UP         1 TEMP              0 ****  ****    0 ROOT
