@<TRIPOS>MOLECULE
0UQ
   64    67     1     0     0
SMALL
No Charge or Current Charge


@<TRIPOS>ATOM
      1 C1           0.5980     1.2900     0.4750 c6         1 0UQ      -0.075400
      2 C2          -0.3680     0.1100     0.2290 c6         1 0UQ       0.169800
      3 N1          -0.8090     0.0270    -1.1930 n3         1 0UQ      -0.728600
      4 C3           0.3710    -0.0500    -2.1150 c6         1 0UQ       0.192500
      5 C4           1.3180     1.1590    -1.8910 c6         1 0UQ      -0.075400
      6 C5           1.8590     1.2520    -0.4360 c5         1 0UQ       0.272200
      7 C6          -0.0280    -0.1040    -3.6190 c3         1 0UQ      -0.095100
      8 N2           2.8690     0.1780    -0.1380 nh         1 0UQ      -0.831300
      9 C7           2.7180     2.5740    -0.2350 c5         1 0UQ       0.164800
     10 C8           2.6780    -0.9240     0.7010 ca         1 0UQ       0.289000
     11 C9           2.6440    -0.7710     2.1000 ca         1 0UQ      -0.112000
     12 C10          2.4330    -1.8830     2.9350 ca         1 0UQ      -0.082000
     13 C11          2.2600    -3.1570     2.3670 ca         1 0UQ      -0.143000
     14 C12          2.3070    -3.3100     0.9720 ca         1 0UQ       0.173000
     15 C13          2.5190    -2.2010     0.1420 ca         1 0UQ      -0.140000
     16 F1           2.1460    -4.5350     0.4260 f          1 0UQ      -0.174000
     17 C14         -1.7950    -1.0730    -1.3920 c3         1 0UQ       0.215100
     18 C15         -3.0210    -0.9800    -0.4840 ca         1 0UQ      -0.054300
     19 C16         -3.9250     0.0910    -0.6240 ca         1 0UQ      -0.130000
     20 C17         -5.0560     0.1920     0.2020 ca         1 0UQ       0.147100
     21 C18         -5.2800    -0.7880     1.1940 ca         1 0UQ      -0.199000
     22 C19         -4.3820    -1.8590     1.3400 ca         1 0UQ      -0.076000
     23 C20         -3.2580    -1.9560     0.5040 ca         1 0UQ      -0.150000
     24 O1          -5.8930     1.2760     0.0120 os         1 0UQ      -0.358100
     25 C21         -7.1850     1.4040     0.6370 c3         1 0UQ       0.180300
     26 C22         -7.6170     2.8710     0.4590 c3         1 0UQ      -0.107600
     27 C23         -8.1640     0.4230    -0.0470 c3         1 0UQ      -0.107600
     28 S1           4.4620     0.6510    -0.5100 s6         1 0UQ       1.272200
     29 N3           4.0370     2.2550    -0.8200 n3         1 0UQ      -0.715500
     30 O2           4.8510    -0.0030    -1.7610 o          1 0UQ      -0.545000
     31 C24          5.1030     3.2530    -0.6320 c3         1 0UQ       0.177100
     32 O3           5.2540     0.5810     0.7210 o          1 0UQ      -0.545000
     33 H1           0.0520     2.2270     0.2960 hc         1 0UQ       0.057200
     34 H2           0.8900     1.3160     1.5320 hc         1 0UQ       0.057200
     35 H3           0.1050    -0.8320     0.5360 h1         1 0UQ       0.043200
     36 H4          -1.2330     0.2520     0.8920 h1         1 0UQ       0.043200
     37 H6           0.9380    -0.9670    -1.9060 h1         1 0UQ       0.031700
     38 H7           2.1610     1.1010    -2.5910 hc         1 0UQ       0.062700
     39 H8           0.7830     2.0850    -2.1410 hc         1 0UQ       0.062700
     40 H9          -0.7040     0.7180    -3.8820 hc         1 0UQ       0.041700
     41 H10          0.8550    -0.0280    -4.2650 hc         1 0UQ       0.041700
     42 H11         -0.5200    -1.0480    -3.8770 hc         1 0UQ       0.041700
     43 H12          2.2510     3.4490    -0.7070 h1         1 0UQ       0.065700
     44 H13          2.8190     2.7930     0.8370 h1         1 0UQ       0.065700
     45 H14          2.7860     0.2130     2.5370 ha         1 0UQ       0.129000
     46 H15          2.4050    -1.7570     4.0150 ha         1 0UQ       0.123000
     47 H16          2.0950    -4.0230     3.0020 ha         1 0UQ       0.135000
     48 H17          2.5560    -2.3290    -0.9340 ha         1 0UQ       0.150000
     49 H18         -2.1710    -1.0700    -2.4220 h1         1 0UQ       0.042700
     50 H19         -1.3060    -2.0450    -1.2350 h1         1 0UQ       0.042700
     51 H20         -3.7450     0.8520    -1.3790 ha         1 0UQ       0.138000
     52 H21         -6.1360    -0.7350     1.8600 ha         1 0UQ       0.115000
     53 H22         -4.5560    -2.6140     2.1050 ha         1 0UQ       0.110000
     54 H23         -2.5680    -2.7870     0.6280 ha         1 0UQ       0.112000
     55 H24         -7.1300     1.1950     1.7130 h1         1 0UQ       0.039700
     56 H25         -8.6010     3.0390     0.9140 hc         1 0UQ       0.046200
     57 H26         -6.9000     3.5440     0.9450 hc         1 0UQ       0.046200
     58 H27         -7.6780     3.1360    -0.6030 hc         1 0UQ       0.046200
     59 H28         -7.8590    -0.6180     0.1090 hc         1 0UQ       0.046200
     60 H29         -9.1720     0.5420     0.3650 hc         1 0UQ       0.046200
     61 H30         -8.2110     0.6100    -1.1270 hc         1 0UQ       0.046200
     62 H31          5.3880     3.3300     0.4260 h1         1 0UQ       0.054033
     63 H32          5.9960     2.9850    -1.2110 h1         1 0UQ       0.054033
     64 H33          4.7680     4.2430    -0.9670 h1         1 0UQ       0.054033
@<TRIPOS>BOND
     1     1     2 1   
     2     1     6 1   
     3     1    33 1   
     4     1    34 1   
     5     2     3 1   
     6     2    35 1   
     7     2    36 1   
     8     3     4 1   
     9     3    17 1   
    10     4     5 1   
    11     4     7 1   
    12     4    37 1   
    13     5     6 1   
    14     5    38 1   
    15     5    39 1   
    16     6     8 1   
    17     6     9 1   
    18     7    40 1   
    19     7    41 1   
    20     7    42 1   
    21     8    10 1   
    22     8    28 1   
    23     9    29 1   
    24     9    43 1   
    25     9    44 1   
    26    10    11 ar  
    27    10    15 ar  
    28    11    12 ar  
    29    11    45 1   
    30    12    13 ar  
    31    12    46 1   
    32    13    14 ar  
    33    13    47 1   
    34    14    15 ar  
    35    14    16 1   
    36    15    48 1   
    37    17    18 1   
    38    17    49 1   
    39    17    50 1   
    40    18    19 ar  
    41    18    23 ar  
    42    19    20 ar  
    43    19    51 1   
    44    20    21 ar  
    45    20    24 1   
    46    21    22 ar  
    47    21    52 1   
    48    22    23 ar  
    49    22    53 1   
    50    23    54 1   
    51    24    25 1   
    52    25    26 1   
    53    25    27 1   
    54    25    55 1   
    55    26    56 1   
    56    26    57 1   
    57    26    58 1   
    58    27    59 1   
    59    27    60 1   
    60    27    61 1   
    61    28    29 1   
    62    28    30 2   
    63    28    32 2   
    64    29    31 1   
    65    31    62 1   
    66    31    63 1   
    67    31    64 1   
@<TRIPOS>SUBSTRUCTURE
     1 0UQ         1 TEMP              0 ****  ****    0 ROOT
