@<TRIPOS>MOLECULE
0UQ
   64    67     1     0     0
SMALL
abcg2


@<TRIPOS>ATOM
      1 C1           0.4550     0.9720     0.6940 c6         1 0UQ      -0.075400
      2 C2          -0.3440    -0.2990     0.4690 c6         1 0UQ       0.169800
      3 N1          -0.8560    -0.3870    -0.8880 n3         1 0UQ      -0.728600
      4 C3           0.2300    -0.3930    -1.8640 c6         1 0UQ       0.192500
      5 C4           1.0240     0.9040    -1.7220 c6         1 0UQ      -0.075400
      6 C5           1.5740     1.1680    -0.3180 c5         1 0UQ       0.272200
      7 C6          -0.2720    -0.4880    -3.3000 c3         1 0UQ      -0.095100
      8 N2           2.7700     0.3310    -0.0450 nh         1 0UQ      -0.831300
      9 C7           2.1550     2.5790    -0.2150 c5         1 0UQ       0.164800
     10 C8           2.8390    -0.9010     0.6500 ca         1 0UQ       0.289000
     11 C9           2.7840    -0.9370     2.0390 ca         1 0UQ      -0.112000
     12 C10          2.8400    -2.1570     2.6960 ca         1 0UQ      -0.082000
     13 C11          2.9770    -3.3410     1.9850 ca         1 0UQ      -0.143000
     14 C12          3.0610    -3.2730     0.6080 ca         1 0UQ       0.173000
     15 C13          3.0000    -2.0750    -0.0770 ca         1 0UQ      -0.140000
     16 F1           3.2060    -4.4070    -0.0930 f          1 0UQ      -0.174000
     17 C14         -1.7780    -1.5000    -0.9940 c3         1 0UQ       0.215100
     18 C15         -3.0680    -1.2410    -0.2560 ca         1 0UQ      -0.054300
     19 C16         -3.7050    -0.0160    -0.3920 ca         1 0UQ      -0.130000
     20 C17         -4.9240     0.2360     0.2380 ca         1 0UQ       0.147100
     21 C18         -5.5090    -0.7600     1.0200 ca         1 0UQ      -0.199000
     22 C19         -4.8660    -1.9840     1.1540 ca         1 0UQ      -0.076000
     23 C20         -3.6550    -2.2320     0.5260 ca         1 0UQ      -0.150000
     24 O1          -5.4360     1.4680     0.0480 os         1 0UQ      -0.358100
     25 C21         -6.7770     1.7760     0.4400 c3         1 0UQ       0.180300
     26 C22         -6.8860     3.2880     0.4110 c3         1 0UQ      -0.107600
     27 C23         -7.7830     1.1150    -0.4880 c3         1 0UQ      -0.107600
     28 S1           4.1990     1.0950    -0.3320 s6         1 0UQ       1.272200
     29 N3           3.4660     2.4940    -0.8370 n3         1 0UQ      -0.715500
     30 O2           4.9350     0.4990    -1.4340 o          1 0UQ      -0.545000
     31 C24          4.3020     3.6830    -0.8070 c3         1 0UQ       0.177100
     32 O3           4.9590     1.2550     0.9020 o          1 0UQ      -0.545000
     33 H1          -0.2180     1.8280     0.5850 hc         1 0UQ       0.057200
     34 H2           0.8400     1.0020     1.7150 hc         1 0UQ       0.057200
     35 H3           0.2580    -1.1870     0.7240 h1         1 0UQ       0.043200
     36 H4          -1.1860    -0.2960     1.1630 h1         1 0UQ       0.043200
     37 H6           0.9060    -1.2470    -1.6870 h1         1 0UQ       0.031700
     38 H7           1.8430     0.9100    -2.4440 hc         1 0UQ       0.062700
     39 H8           0.3550     1.7300    -1.9830 hc         1 0UQ       0.062700
     40 H9          -1.0430     0.2610    -3.4900 hc         1 0UQ       0.041700
     41 H10          0.5530    -0.3060    -3.9890 hc         1 0UQ       0.041700
     42 H11         -0.6790    -1.4680    -3.5470 hc         1 0UQ       0.041700
     43 H12          1.5480     3.3010    -0.7610 h1         1 0UQ       0.065700
     44 H13          2.2150     2.9020     0.8340 h1         1 0UQ       0.065700
     45 H14          2.6890    -0.0200     2.6040 ha         1 0UQ       0.129000
     46 H15          2.7860    -2.1900     3.7760 ha         1 0UQ       0.123000
     47 H16          3.0240    -4.2960     2.4920 ha         1 0UQ       0.135000
     48 H17          3.0560    -2.0510    -1.1570 ha         1 0UQ       0.150000
     49 H18         -2.0280    -1.6630    -2.0420 h1         1 0UQ       0.042700
     50 H19         -1.3370    -2.4460    -0.6350 h1         1 0UQ       0.042700
     51 H20         -3.2390     0.7620    -0.9850 ha         1 0UQ       0.138000
     52 H21         -6.4490    -0.6030     1.5310 ha         1 0UQ       0.115000
     53 H22         -5.3230    -2.7500     1.7680 ha         1 0UQ       0.110000
     54 H23         -3.1660    -3.1920     0.6450 ha         1 0UQ       0.112000
     55 H24         -6.9460     1.4380     1.4690 h1         1 0UQ       0.039700
     56 H25         -7.8860     3.5920     0.7170 hc         1 0UQ       0.046200
     57 H26         -6.1720     3.7500     1.0930 hc         1 0UQ       0.046200
     58 H27         -6.7090     3.6770    -0.5940 hc         1 0UQ       0.046200
     59 H28         -7.7170     0.0280    -0.4670 hc         1 0UQ       0.046200
     60 H29         -8.7950     1.3890    -0.1890 hc         1 0UQ       0.046200
     61 H30         -7.6340     1.4460    -1.5170 hc         1 0UQ       0.046200
     62 H31          4.5060     4.0360     0.2070 h1         1 0UQ       0.054033
     63 H32          5.2470     3.4910    -1.3140 h1         1 0UQ       0.054033
     64 H33          3.7880     4.4700    -1.3550 h1         1 0UQ       0.054033
@<TRIPOS>BOND
     1     1     2 1   
     2     1     6 1   
     3     1    33 1   
     4     1    34 1   
     5     2     3 1   
     6     2    35 1   
     7     2    36 1   
     8     3     4 1   
     9     3    17 1   
    10     4     5 1   
    11     4     7 1   
    12     4    37 1   
    13     5     6 1   
    14     5    38 1   
    15     5    39 1   
    16     6     8 1   
    17     6     9 1   
    18     7    40 1   
    19     7    41 1   
    20     7    42 1   
    21     8    10 1   
    22     8    28 1   
    23     9    29 1   
    24     9    43 1   
    25     9    44 1   
    26    10    11 ar  
    27    10    15 ar  
    28    11    12 ar  
    29    11    45 1   
    30    12    13 ar  
    31    12    46 1   
    32    13    14 ar  
    33    13    47 1   
    34    14    15 ar  
    35    14    16 1   
    36    15    48 1   
    37    17    18 1   
    38    17    49 1   
    39    17    50 1   
    40    18    19 ar  
    41    18    23 ar  
    42    19    20 ar  
    43    19    51 1   
    44    20    21 ar  
    45    20    24 1   
    46    21    22 ar  
    47    21    52 1   
    48    22    23 ar  
    49    22    53 1   
    50    23    54 1   
    51    24    25 1   
    52    25    26 1   
    53    25    27 1   
    54    25    55 1   
    55    26    56 1   
    56    26    57 1   
    57    26    58 1   
    58    27    59 1   
    59    27    60 1   
    60    27    61 1   
    61    28    29 1   
    62    28    30 2   
    63    28    32 2   
    64    29    31 1   
    65    31    62 1   
    66    31    63 1   
    67    31    64 1   
@<TRIPOS>SUBSTRUCTURE
     1 0UQ         1 TEMP              0 ****  ****    0 ROOT
