@<TRIPOS>MOLECULE
0UR
  133   134     1     0     0
SMALL
abcg2


@<TRIPOS>ATOM
      1 C28         74.9130   115.5440    99.8180 c6         1 0UR      -0.029000
      2 C29         74.3960   115.3140    98.3950 c6         1 0UR      -0.106400
      3 C30         74.0950   113.8520    98.1090 c6         1 0UR       0.208500
      4 C31         75.2430   112.9920    98.5340 c2         1 0UR      -0.215200
      5 C32         76.2060   113.3800    99.3680 c2         1 0UR      -0.101400
      6 C34         91.9220   122.7440   115.2730 c3         1 0UR      -0.055900
      7 C37         89.6100   127.0180   115.7180 c3         1 0UR      -0.084100
      8 C38         73.8750   115.0830   100.8460 c3         1 0UR      -0.085600
      9 O40         73.8760   113.6140    96.7280 oh         1 0UR      -0.656000
     10 C43         89.3170   124.4140   111.1330 c3         1 0UR       0.208800
     11 C1          90.2370   124.5890   115.4830 c2         1 0UR      -0.107400
     12 C2          89.1500   123.3910   113.5090 c          1 0UR       0.581300
     13 C3          88.8430   123.3310   112.0560 ce         1 0UR      -0.257400
     14 C4          88.0800   122.3010   111.6140 cf         1 0UR      -0.067000
     15 C5          87.6140   122.0760   110.2800 cf         1 0UR      -0.225000
     16 C6          86.7370   121.0810   110.0030 ce         1 0UR      -0.124000
     17 C10         83.4280   118.5680   107.5490 ce         1 0UR      -0.159000
     18 C11         82.6350   118.2190   106.4100 ce         1 0UR      -0.184000
     19 C12         81.6060   117.3300   106.3620 cf         1 0UR      -0.055200
     20 C13         80.9300   117.1500   105.0990 cf         1 0UR      -0.180000
     21 C14         79.8790   116.3290   104.8770 ce         1 0UR      -0.165000
     22 C15         79.2570   116.2020   103.5880 ce         1 0UR      -0.184000
     23 C16         78.2060   115.4110   103.2610 cf         1 0UR      -0.057200
     24 C18         76.7090   114.7200   101.3990 c2         1 0UR      -0.191200
     25 C19         76.2520   114.7730    99.9720 c6         1 0UR       0.011700
     26 C20         86.5800   121.6690   107.5530 c3         1 0UR      -0.057900
     27 C21         81.1340   116.5360   107.5430 c3         1 0UR      -0.056900
     28 C22         77.5000   114.5140   104.2310 c3         1 0UR      -0.056900
     29 C23         89.4330   125.6030   116.2870 c6         1 0UR       0.007200
     30 C24         89.9140   125.6510   117.7430 c6         1 0UR      -0.106400
     31 C25         90.1880   124.2760   118.3190 c6         1 0UR       0.172300
     32 C26         91.3130   123.6410   117.5320 c6         1 0UR      -0.039200
     33 C27         91.0980   123.7310   116.0450 c2         1 0UR      -0.086400
     34 C33         77.3500   112.4710    99.7080 c3         1 0UR      -0.052900
     35 C35         87.9400   125.2460   116.2310 c3         1 0UR      -0.084100
     36 C36         75.1630   117.0380   100.0090 c3         1 0UR      -0.085600
     37 C41         89.9870   124.5600   113.9970 c3         1 0UR      -0.134200
     38 C45         87.6660   125.8170   110.0990 c          1 0UR       0.605300
     39 C46         86.7230   126.9270   110.3040 ce         1 0UR      -0.292200
     40 C47         86.4010   127.5640   111.4350 c2         1 0UR      -0.116200
     41 C48         86.8830   127.3780   112.8380 c3         1 0UR      -0.056200
     42 C49         85.9320   127.9960   113.8610 c3         1 0UR      -0.073400
     43 C50         84.5300   127.3890   113.9320 c3         1 0UR      -0.072400
     44 C51         84.4130   126.0430   114.6530 c3         1 0UR      -0.074400
     45 C52         84.7300   124.7960   113.8320 c3         1 0UR      -0.076400
     46 C53         84.4950   123.5200   114.6330 c3         1 0UR      -0.072400
     47 C54         84.8490   122.2300   113.8980 c3         1 0UR      -0.074400
     48 C55         84.0970   121.9920   112.5910 c3         1 0UR      -0.074400
     49 C56         82.5830   121.9590   112.7490 c3         1 0UR      -0.088100
     50 C7          86.1400   120.8320   108.7160 ce         1 0UR      -0.079200
     51 C8          85.1790   119.8710   108.6460 cf         1 0UR      -0.158000
     52 C9          84.4110   119.5000   107.4990 cf         1 0UR      -0.181000
     53 O39         90.5770   124.3260   119.6770 oh         1 0UR      -0.662000
     54 O42         88.7440   122.5390   114.2760 o          1 0UR      -0.530100
     55 O44         88.3970   125.5220   111.1690 os         1 0UR      -0.453100
     56 O57         87.7680   125.2540   109.0320 o          1 0UR      -0.503000
     57 H1          75.1530   115.6560    97.6810 hc         1 0UR       0.048700
     58 H2          73.5000   115.9210    98.2290 hc         1 0UR       0.048700
     59 H3          73.1990   113.5500    98.6730 h1         1 0UR       0.035700
     60 H4          75.2680   111.9840    98.1280 ha         1 0UR       0.185000
     61 H5          92.9490   122.7350   115.6470 hc         1 0UR       0.041033
     62 H6          91.5360   121.7300   115.4100 hc         1 0UR       0.041033
     63 H7          91.9640   122.9370   114.2030 hc         1 0UR       0.041033
     64 H8          89.1060   127.7400   116.3650 hc         1 0UR       0.035200
     65 H9          90.6640   127.2970   115.6660 hc         1 0UR       0.035200
     66 H10         89.1810   127.1350   114.7230 hc         1 0UR       0.035200
     67 H11         74.1500   115.3960   101.8540 hc         1 0UR       0.035700
     68 H12         72.9020   115.5260   100.6230 hc         1 0UR       0.035700
     69 H13         73.7500   113.9990   100.8630 hc         1 0UR       0.035700
     70 H14         73.0750   114.0810    96.4720 ho         1 0UR       0.439000
     71 H15         89.4360   124.0470   110.1160 h1         1 0UR       0.065700
     72 H16         90.2810   124.8170   111.4390 h1         1 0UR       0.065700
     73 H17         87.7610   121.5700   112.3510 ha         1 0UR       0.192000
     74 H18         87.9260   122.7460   109.4900 ha         1 0UR       0.200000
     75 H19         86.4220   120.4330   110.8170 ha         1 0UR       0.172000
     76 H20         83.2330   118.0800   108.4980 ha         1 0UR       0.172000
     77 H21         82.8850   118.7390   105.4890 ha         1 0UR       0.171000
     78 H22         81.3090   117.7350   104.2640 ha         1 0UR       0.171000
     79 H23         79.4860   115.7420   105.6990 ha         1 0UR       0.173000
     80 H24         79.6880   116.8100   102.7970 ha         1 0UR       0.170000
     81 H25         78.2760   116.0820   101.2030 ha         1 0UR       0.170000
     82 H26         76.1540   114.0580   102.0570 ha         1 0UR       0.173000
     83 H27         77.0120   115.3330    99.4070 hc         1 0UR       0.058700
     84 H28         87.6620   121.6120   107.4190 hc         1 0UR       0.048367
     85 H29         86.1190   121.3680   106.6160 hc         1 0UR       0.048367
     86 H30         86.3380   122.7220   107.7140 hc         1 0UR       0.048367
     87 H31         81.7010   116.7390   108.4470 hc         1 0UR       0.043700
     88 H32         80.0850   116.7470   107.7580 hc         1 0UR       0.043700
     89 H33         81.2060   115.4650   107.3430 hc         1 0UR       0.043700
     90 H34         77.9260   114.5450   105.2300 hc         1 0UR       0.042700
     91 H35         76.4450   114.7850   104.3140 hc         1 0UR       0.042700
     92 H36         77.5320   113.4760   103.8920 hc         1 0UR       0.042700
     93 H37         90.8410   126.2340   117.8000 hc         1 0UR       0.045700
     94 H38         89.1690   126.1840   118.3440 hc         1 0UR       0.045700
     95 H39         89.2900   123.6500   118.2060 h1         1 0UR       0.039700
     96 H40         91.4250   122.5890   117.8120 hc         1 0UR       0.059700
     97 H41         92.2620   124.1250   117.7970 hc         1 0UR       0.059700
     98 H42         77.3640   112.2110   100.7690 hc         1 0UR       0.042033
     99 H43         77.3070   111.5450    99.1360 hc         1 0UR       0.042033
    100 H44         78.3060   112.9570    99.4980 hc         1 0UR       0.042033
    101 H45         87.3500   125.9940   116.7660 hc         1 0UR       0.035200
    102 H46         87.5720   125.2220   115.2030 hc         1 0UR       0.035200
    103 H47         87.7320   124.2720   116.6750 hc         1 0UR       0.035200
    104 H48         75.5750   117.2520   100.9960 hc         1 0UR       0.035700
    105 H49         75.8650   117.4210    99.2630 hc         1 0UR       0.035700
    106 H50         74.2330   117.6010    99.9090 hc         1 0UR       0.035700
    107 H51         90.9290   124.5540   113.4380 hc         1 0UR       0.068200
    108 H52         89.4890   125.4730   113.6620 hc         1 0UR       0.068200
    109 H53         86.2360   127.2410   109.3890 ha         1 0UR       0.201000
    110 H54         85.6780   128.3670   111.3100 ha         1 0UR       0.169000
    111 H55         87.0680   126.3290   113.0580 hc         1 0UR       0.065700
    112 H56         87.8590   127.8680   112.9280 hc         1 0UR       0.065700
    113 H57         86.3950   127.9400   114.8500 hc         1 0UR       0.039200
    114 H58         85.8390   129.0630   113.6350 hc         1 0UR       0.039200
    115 H59         83.8970   128.1060   114.4600 hc         1 0UR       0.037700
    116 H60         84.1000   127.3060   112.9270 hc         1 0UR       0.037700
    117 H61         83.3860   125.9420   115.0180 hc         1 0UR       0.035700
    118 H62         85.0440   126.0600   115.5490 hc         1 0UR       0.035700
    119 H63         85.7660   124.8060   113.4820 hc         1 0UR       0.040700
    120 H64         84.1060   124.7970   112.9330 hc         1 0UR       0.040700
    121 H65         83.4500   123.4900   114.9620 hc         1 0UR       0.035700
    122 H66         85.0910   123.5670   115.5510 hc         1 0UR       0.035700
    123 H67         84.6660   121.3840   114.5690 hc         1 0UR       0.041200
    124 H68         85.9240   122.2250   113.6960 hc         1 0UR       0.041200
    125 H69         84.4330   121.0420   112.1660 hc         1 0UR       0.034200
    126 H70         84.3730   122.7540   111.8550 hc         1 0UR       0.034200
    127 H71         82.0940   121.6940   111.8100 hc         1 0UR       0.030367
    128 H72         82.2820   121.2220   113.4970 hc         1 0UR       0.030367
    129 H73         82.1840   122.9250   113.0610 hc         1 0UR       0.030367
    130 H74         84.9440   119.3380   109.5640 ha         1 0UR       0.169000
    131 H75         84.6050   119.9920   106.5510 ha         1 0UR       0.176000
    132 H76         89.8550   124.7140   120.1810 ho         1 0UR       0.441000
    133 C17         77.7340   115.4300   101.8840 cf         1 0UR      -0.193000
@<TRIPOS>BOND
     1     1     2 1   
     2     1     8 1   
     3     1    25 1   
     4     1    36 1   
     5     2     3 1   
     6     2    57 1   
     7     2    58 1   
     8     3     4 1   
     9     3     9 1   
    10     3    59 1   
    11     4     5 2   
    12     4    60 1   
    13     5    25 1   
    14     5    34 1   
    15     6    33 1   
    16     6    61 1   
    17     6    62 1   
    18     6    63 1   
    19     7    29 1   
    20     7    64 1   
    21     7    65 1   
    22     7    66 1   
    23     8    67 1   
    24     8    68 1   
    25     8    69 1   
    26     9    70 1   
    27    10    13 1   
    28    10    55 1   
    29    10    71 1   
    30    10    72 1   
    31    11    29 1   
    32    11    33 2   
    33    11    37 1   
    34    12    13 1   
    35    12    37 1   
    36    12    54 2   
    37    13    14 2   
    38    14    15 1   
    39    14    73 1   
    40    15    16 2   
    41    15    74 1   
    42    16    50 1   
    43    16    75 1   
    44    17    18 1   
    45    17    52 2   
    46    17    76 1   
    47    18    19 2   
    48    18    77 1   
    49    19    20 1   
    50    19    27 1   
    51    20    21 2   
    52    20    78 1   
    53    21    22 1   
    54    21    79 1   
    55    22    23 2   
    56    22    80 1   
    57    23    28 1   
    58    23   133 1   
    59    24    25 1   
    60    24    82 1   
    61    24   133 2   
    62    25    83 1   
    63    26    50 1   
    64    26    84 1   
    65    26    85 1   
    66    26    86 1   
    67    27    87 1   
    68    27    88 1   
    69    27    89 1   
    70    28    90 1   
    71    28    91 1   
    72    28    92 1   
    73    29    30 1   
    74    29    35 1   
    75    30    31 1   
    76    30    93 1   
    77    30    94 1   
    78    31    32 1   
    79    31    53 1   
    80    31    95 1   
    81    32    33 1   
    82    32    96 1   
    83    32    97 1   
    84    34    98 1   
    85    34    99 1   
    86    34   100 1   
    87    35   101 1   
    88    35   102 1   
    89    35   103 1   
    90    36   104 1   
    91    36   105 1   
    92    36   106 1   
    93    37   107 1   
    94    37   108 1   
    95    38    39 1   
    96    38    55 1   
    97    38    56 2   
    98    39    40 2   
    99    39   109 1   
   100    40    41 1   
   101    40   110 1   
   102    41    42 1   
   103    41   111 1   
   104    41   112 1   
   105    42    43 1   
   106    42   113 1   
   107    42   114 1   
   108    43    44 1   
   109    43   115 1   
   110    43   116 1   
   111    44    45 1   
   112    44   117 1   
   113    44   118 1   
   114    45    46 1   
   115    45   119 1   
   116    45   120 1   
   117    46    47 1   
   118    46   121 1   
   119    46   122 1   
   120    47    48 1   
   121    47   123 1   
   122    47   124 1   
   123    48    49 1   
   124    48   125 1   
   125    48   126 1   
   126    49   127 1   
   127    49   128 1   
   128    49   129 1   
   129    50    51 2   
   130    51    52 1   
   131    51   130 1   
   132    52   131 1   
   133    53   132 1   
   134    81   133 1   
@<TRIPOS>SUBSTRUCTURE
     1 0UR         1 TEMP              0 ****  ****    0 ROOT
