@<TRIPOS>MOLECULE
0UR
  133   134     1     0     0
SMALL
No Charge or Current Charge


@<TRIPOS>ATOM
      1 C28         74.6750   114.8570    99.2130 c6         1 0UR      -0.029000
      2 C29         74.2460   114.6170    97.7340 c6         1 0UR      -0.106400
      3 C30         74.0890   113.1130    97.4090 c6         1 0UR       0.208500
      4 C31         75.2560   112.3010    97.9360 c2         1 0UR      -0.215200
      5 C32         76.1370   112.7410    98.8550 c2         1 0UR      -0.101400
      6 C34         91.9430   122.2810   115.3800 c3         1 0UR      -0.055900
      7 C37         90.3770   127.0310   115.9290 c3         1 0UR      -0.084100
      8 C38         73.5770   114.3220   100.1940 c3         1 0UR      -0.085600
      9 O40         73.9940   112.9270    95.9980 oh         1 0UR      -0.656000
     10 C43         88.8390   124.6360   111.1020 c3         1 0UR       0.208800
     11 C1          90.6400   124.4670   115.6990 c2         1 0UR      -0.107400
     12 C2          89.0330   123.5110   113.9100 c          1 0UR       0.581300
     13 C3          88.3800   123.4680   111.9510 ce         1 0UR      -0.257400
     14 C4          87.5940   122.4320   111.5550 cf         1 0UR      -0.067000
     15 C5          87.0260   122.2020   110.2320 cf         1 0UR      -0.225000
     16 C6          86.2150   121.1500   109.9210 ce         1 0UR      -0.124000
     17 C10         82.9360   118.5230   107.3040 ce         1 0UR      -0.159000
     18 C11         82.1890   118.1240   106.1010 ce         1 0UR      -0.184000
     19 C12         81.2840   117.1060   105.9850 cf         1 0UR      -0.055200
     20 C13         80.6310   116.8530   104.6970 cf         1 0UR      -0.180000
     21 C14         79.5510   116.0560   104.4590 ce         1 0UR      -0.165000
     22 C15         78.9560   115.8590   103.1270 ce         1 0UR      -0.184000
     23 C16         77.8390   115.1370   102.8160 cf         1 0UR      -0.057200
     24 C18         76.4720   114.1900   100.9220 c2         1 0UR      -0.191200
     25 C19         76.0640   114.1590    99.4500 c6         1 0UR       0.011700
     26 C20         86.1310   121.6130   107.4010 c3         1 0UR      -0.057900
     27 C21         80.9640   116.1580   107.1380 c3         1 0UR      -0.056900
     28 C22         76.9760   114.4570   103.8770 c3         1 0UR      -0.056900
     29 C23         90.1390   125.6370   116.5980 c6         1 0UR       0.007200
     30 C24         90.8790   125.6660   117.9720 c6         1 0UR      -0.106400
     31 C25         91.0010   124.2660   118.5940 c6         1 0UR       0.172300
     32 C26         91.8440   123.3790   117.6570 c6         1 0UR      -0.039200
     33 C27         91.4160   123.4630   116.1890 c2         1 0UR      -0.086400
     34 C33         77.3250   111.8990    99.2970 c3         1 0UR      -0.052900
     35 C35         88.6040   125.4700   116.8130 c3         1 0UR      -0.084100
     36 C36         74.7890   116.3940    99.4630 c3         1 0UR      -0.085600
     37 C41         90.1650   124.4870   114.2380 c3         1 0UR      -0.134200
     38 C45         86.9280   126.0570   110.6520 c          1 0UR       0.605300
     39 C46         86.1500   127.2410   111.1260 ce         1 0UR      -0.292200
     40 C47         86.2980   127.9850   112.2550 c2         1 0UR      -0.116200
     41 C48         87.2660   127.8070   113.4170 c3         1 0UR      -0.056200
     42 C49         86.7420   128.3890   114.7560 c3         1 0UR      -0.073400
     43 C50         85.3010   127.9920   115.1880 c3         1 0UR      -0.072400
     44 C51         85.0610   126.5310   115.6550 c3         1 0UR      -0.074400
     45 C52         85.1320   125.4470   114.5530 c3         1 0UR      -0.076400
     46 C53         84.4990   124.1050   114.9840 c3         1 0UR      -0.072400
     47 C54         84.7050   122.9490   113.9730 c3         1 0UR      -0.074400
     48 C55         84.1900   123.2050   112.5340 c3         1 0UR      -0.074400
     49 C56         82.6820   123.5090   112.4400 c3         1 0UR      -0.088100
     50 C7          85.5860   120.8640   108.6150 ce         1 0UR      -0.079200
     51 C8          84.6000   119.9220   108.5260 cf         1 0UR      -0.158000
     52 C9          83.8680   119.5130   107.3290 cf         1 0UR      -0.181000
     53 O39         91.6180   124.3490   119.8830 oh         1 0UR      -0.662000
     54 O42         88.5890   122.7360   114.7450 o          1 0UR      -0.530100
     55 O44         88.0530   125.8050   111.3900 os         1 0UR      -0.453100
     56 O57         86.5960   125.4210   109.6630 o          1 0UR      -0.503000
     57 H1          75.0000   115.0570    97.0660 hc         1 0UR       0.048700
     58 H2          73.3040   115.1400    97.5200 hc         1 0UR       0.048700
     59 H3          73.1710   112.7430    97.8910 h1         1 0UR       0.035700
     60 H4          75.3530   111.3020    97.5120 ha         1 0UR       0.185000
     61 H5          93.0390   122.2480   115.4140 hc         1 0UR       0.041033
     62 H6          91.5730   121.3340   115.7890 hc         1 0UR       0.041033
     63 H7          91.6570   122.3010   114.3240 hc         1 0UR       0.041033
     64 H8          90.1850   127.8470   116.6370 hc         1 0UR       0.035200
     65 H9          91.4130   127.1340   115.5850 hc         1 0UR       0.035200
     66 H10         89.7210   127.2150   115.0730 hc         1 0UR       0.035200
     67 H11         73.7780   114.6180   101.2310 hc         1 0UR       0.035700
     68 H12         72.5860   114.7130    99.9350 hc         1 0UR       0.035700
     69 H13         73.5130   113.2270   100.1800 hc         1 0UR       0.035700
     70 H14         73.2210   113.4540    95.7000 ho         1 0UR       0.439000
     71 H15         88.8370   124.3850   110.0330 h1         1 0UR       0.065700
     72 H16         89.8850   124.8330   111.3690 h1         1 0UR       0.065700
     73 H17         87.3750   121.6920   112.3280 ha         1 0UR       0.192000
     74 H18         87.2570   122.9340   109.4600 ha         1 0UR       0.200000
     75 H19         85.9770   120.4480   110.7220 ha         1 0UR       0.172000
     76 H20         82.7200   118.0000   108.2360 ha         1 0UR       0.172000
     77 H21         82.3800   118.7300   105.2140 ha         1 0UR       0.171000
     78 H22         81.0520   117.3830   103.8400 ha         1 0UR       0.171000
     79 H23         79.0890   115.5290   105.2940 ha         1 0UR       0.173000
     80 H24         79.4890   116.3390   102.3040 ha         1 0UR       0.170000
     81 H25         77.8650   115.7460   100.7260 ha         1 0UR       0.170000
     82 H26         75.9870   113.4540   101.5630 ha         1 0UR       0.173000
     83 H27         76.8160   114.7380    98.8940 hc         1 0UR       0.058700
     84 H28         87.2010   121.8260   107.4970 hc         1 0UR       0.048367
     85 H29         86.0310   121.0370   106.4750 hc         1 0UR       0.048367
     86 H30         85.6100   122.5670   107.2590 hc         1 0UR       0.048367
     87 H31         81.8090   116.0360   107.8240 hc         1 0UR       0.043700
     88 H32         80.1080   116.5200   107.7200 hc         1 0UR       0.043700
     89 H33         80.7280   115.1470   106.7850 hc         1 0UR       0.043700
     90 H34         77.0070   114.9830   104.8370 hc         1 0UR       0.042700
     91 H35         75.9180   114.4330   103.5930 hc         1 0UR       0.042700
     92 H36         77.3030   113.4250   104.0480 hc         1 0UR       0.042700
     93 H37         91.8880   126.0820   117.8410 hc         1 0UR       0.045700
     94 H38         90.3590   126.3420   118.6640 hc         1 0UR       0.045700
     95 H39         89.9980   123.8250   118.6890 h1         1 0UR       0.039700
     96 H40         91.7680   122.3420   118.0100 hc         1 0UR       0.059700
     97 H41         92.9060   123.6520   117.7330 hc         1 0UR       0.059700
     98 H42         77.2580   111.6350   100.3590 hc         1 0UR       0.042033
     99 H43         77.3870   110.9600    98.7350 hc         1 0UR       0.042033
    100 H44         78.2680   112.4370    99.1420 hc         1 0UR       0.042033
    101 H45         88.2050   126.2450   117.4790 hc         1 0UR       0.035200
    102 H46         88.0580   125.5440   115.8670 hc         1 0UR       0.035200
    103 H47         88.3590   124.4960   117.2520 hc         1 0UR       0.035200
    104 H48         75.0730   116.6180   100.4980 hc         1 0UR       0.035700
    105 H49         75.5430   116.8500    98.8100 hc         1 0UR       0.035700
    106 H50         73.8380   116.9030    99.2690 hc         1 0UR       0.035700
    107 H51         90.9770   124.2800   113.5330 hc         1 0UR       0.068200
    108 H52         89.8660   125.4620   113.8480 hc         1 0UR       0.068200
    109 H53         85.3550   127.5120   110.4330 ha         1 0UR       0.201000
    110 H54         85.6280   128.8360   112.3920 ha         1 0UR       0.169000
    111 H55         87.5150   126.7570   113.5740 hc         1 0UR       0.065700
    112 H56         88.2160   128.2970   113.1730 hc         1 0UR       0.065700
    113 H57         87.4410   128.1260   115.5590 hc         1 0UR       0.039200
    114 H58         86.7750   129.4830   114.6770 hc         1 0UR       0.039200
    115 H59         85.0290   128.6440   116.0270 hc         1 0UR       0.037700
    116 H60         84.5870   128.2350   114.3920 hc         1 0UR       0.037700
    117 H61         84.0600   126.4960   116.1020 hc         1 0UR       0.035700
    118 H62         85.7610   126.2830   116.4610 hc         1 0UR       0.035700
    119 H63         86.1750   125.2540   114.2870 hc         1 0UR       0.040700
    120 H64         84.6260   125.8160   113.6530 hc         1 0UR       0.040700
    121 H65         83.4260   124.2490   115.1620 hc         1 0UR       0.035700
    122 H66         84.9340   123.8010   115.9440 hc         1 0UR       0.035700
    123 H67         84.2160   122.0490   114.3670 hc         1 0UR       0.041200
    124 H68         85.7750   122.7170   113.9240 hc         1 0UR       0.041200
    125 H69         84.3990   122.3140   111.9300 hc         1 0UR       0.034200
    126 H70         84.7570   124.0240   112.0760 hc         1 0UR       0.034200
    127 H71         82.3780   123.5970   111.3900 hc         1 0UR       0.030367
    128 H72         82.0940   122.7060   112.9010 hc         1 0UR       0.030367
    129 H73         82.4370   124.4530   112.9410 hc         1 0UR       0.030367
    130 H74         84.3040   119.4200   109.4490 ha         1 0UR       0.169000
    131 H75         84.0730   120.0410   106.3960 ha         1 0UR       0.176000
    132 H76         91.0300   124.9050   120.4400 ho         1 0UR       0.441000
    133 C17         77.3910   115.0520   101.4230 cf         1 0UR      -0.193000
@<TRIPOS>BOND
     1     1     2 1   
     2     1     8 1   
     3     1    25 1   
     4     1    36 1   
     5     2     3 1   
     6     2    57 1   
     7     2    58 1   
     8     3     4 1   
     9     3     9 1   
    10     3    59 1   
    11     4     5 2   
    12     4    60 1   
    13     5    25 1   
    14     5    34 1   
    15     6    33 1   
    16     6    61 1   
    17     6    62 1   
    18     6    63 1   
    19     7    29 1   
    20     7    64 1   
    21     7    65 1   
    22     7    66 1   
    23     8    67 1   
    24     8    68 1   
    25     8    69 1   
    26     9    70 1   
    27    10    13 1   
    28    10    55 1   
    29    10    71 1   
    30    10    72 1   
    31    11    29 1   
    32    11    33 2   
    33    11    37 1   
    34    12    13 1   
    35    12    37 1   
    36    12    54 2   
    37    13    14 2   
    38    14    15 1   
    39    14    73 1   
    40    15    16 2   
    41    15    74 1   
    42    16    50 1   
    43    16    75 1   
    44    17    18 1   
    45    17    52 2   
    46    17    76 1   
    47    18    19 2   
    48    18    77 1   
    49    19    20 1   
    50    19    27 1   
    51    20    21 2   
    52    20    78 1   
    53    21    22 1   
    54    21    79 1   
    55    22    23 2   
    56    22    80 1   
    57    23    28 1   
    58    23   133 1   
    59    24    25 1   
    60    24    82 1   
    61    24   133 2   
    62    25    83 1   
    63    26    50 1   
    64    26    84 1   
    65    26    85 1   
    66    26    86 1   
    67    27    87 1   
    68    27    88 1   
    69    27    89 1   
    70    28    90 1   
    71    28    91 1   
    72    28    92 1   
    73    29    30 1   
    74    29    35 1   
    75    30    31 1   
    76    30    93 1   
    77    30    94 1   
    78    31    32 1   
    79    31    53 1   
    80    31    95 1   
    81    32    33 1   
    82    32    96 1   
    83    32    97 1   
    84    34    98 1   
    85    34    99 1   
    86    34   100 1   
    87    35   101 1   
    88    35   102 1   
    89    35   103 1   
    90    36   104 1   
    91    36   105 1   
    92    36   106 1   
    93    37   107 1   
    94    37   108 1   
    95    38    39 1   
    96    38    55 1   
    97    38    56 2   
    98    39    40 2   
    99    39   109 1   
   100    40    41 1   
   101    40   110 1   
   102    41    42 1   
   103    41   111 1   
   104    41   112 1   
   105    42    43 1   
   106    42   113 1   
   107    42   114 1   
   108    43    44 1   
   109    43   115 1   
   110    43   116 1   
   111    44    45 1   
   112    44   117 1   
   113    44   118 1   
   114    45    46 1   
   115    45   119 1   
   116    45   120 1   
   117    46    47 1   
   118    46   121 1   
   119    46   122 1   
   120    47    48 1   
   121    47   123 1   
   122    47   124 1   
   123    48    49 1   
   124    48   125 1   
   125    48   126 1   
   126    49   127 1   
   127    49   128 1   
   128    49   129 1   
   129    50    51 2   
   130    51    52 1   
   131    51   130 1   
   132    52   131 1   
   133    53   132 1   
   134    81   133 1   
@<TRIPOS>SUBSTRUCTURE
     1 0UR         1 TEMP              0 ****  ****    0 ROOT
