@<TRIPOS>MOLECULE
0US
   79    83     1     0     0
SMALL
No Charge or Current Charge


@<TRIPOS>ATOM
      1 C16          7.1070     2.8300    -3.9020 c2         1 0US      -0.303000
      2 C15          8.0520     2.4410    -3.0280 c2         1 0US      -0.226200
      3 C21          7.9760     2.5840    -1.5280 c3         1 0US       0.228000
      4 N5           7.2970     1.3990    -1.0110 n7         1 0US      -0.861300
      5 S1           6.9880     1.3350     0.6260 sy         1 0US       1.148600
      6 O1           8.1630     0.7020     1.2310 o          1 0US      -0.526000
      7 O2           6.5020     2.6600     1.0170 o          1 0US      -0.526000
      8 C5           5.6240     0.1680     0.6160 ca         1 0US      -0.315500
      9 C7           4.2940     0.6280     0.7180 ca         1 0US       0.039000
     10 C22          5.8860    -1.2090     0.5020 ca         1 0US      -0.002000
     11 C26          4.8200    -2.1200     0.4920 ca         1 0US      -0.137000
     12 C23          3.4940    -1.6680     0.5940 ca         1 0US      -0.042000
     13 C6           3.2120    -0.2830     0.7100 ca         1 0US      -0.173600
     14 C4           1.7990     0.2560     0.8210 c          1 0US       0.626700
     15 O3           1.5860     1.4590     0.8780 o          1 0US      -0.520100
     16 N3           0.7970    -0.6890     0.8460 ns         1 0US      -0.426400
     17 C1          -0.5680    -0.5140     0.9200 cc         1 0US       0.472400
     18 N1          -1.1780     0.6720     1.0400 nd         1 0US      -0.557100
     19 C2          -2.5180     0.3490     1.1870 ca         1 0US       0.070400
     20 C10         -3.5620     1.2560     1.4200 ca         1 0US      -0.025000
     21 C11         -4.8570     0.7590     1.6660 ca         1 0US      -0.110300
     22 C12         -6.0090     1.7250     1.9190 c3         1 0US       0.222100
     23 N4          -6.2940     2.6110     0.7660 n3         1 0US      -0.721600
     24 C24         -6.7020     1.8570    -0.4560 c6         1 0US       0.169300
     25 C29         -6.8880     2.7980    -1.6710 c6         1 0US      -0.075900
     26 C30         -7.9020     3.9210    -1.3560 c6         1 0US      -0.075400
     27 C28         -7.4870     4.6620    -0.0640 c6         1 0US      -0.075900
     28 C25         -7.2860     3.6680     1.1070 c6         1 0US       0.169300
     29 C17         -5.0660    -0.6390     1.7090 ca         1 0US      -0.098000
     30 C9          -4.0020    -1.5330     1.4750 ca         1 0US      -0.119000
     31 C3          -2.7320    -1.0080     1.1540 ca         1 0US      -0.059200
     32 N2          -1.4910    -1.5740     0.8940 na         1 0US      -0.208600
     33 C8          -1.1650    -2.9810     0.4480 c6         1 0US       0.108300
     34 C14         -2.2650    -4.0810     0.5340 c6         1 0US      -0.086900
     35 C19         -3.3120    -4.0260    -0.6230 c6         1 0US      -0.072900
     36 C13         -0.5420    -3.0110    -0.9860 c6         1 0US      -0.086900
     37 C18         -1.6040    -2.8810    -2.1030 c6         1 0US      -0.072900
     38 C20         -2.6370    -4.0350    -2.0200 c6         1 0US      -0.064700
     39 C27         -3.6730    -3.9430    -3.1790 c3         1 0US       0.166600
     40 O4          -4.5490    -5.0760    -3.2120 oh         1 0US      -0.663000
     41 H16          6.1790     3.3010    -3.5750 ha         1 0US       0.165500
     42 H16A         7.2320     2.6920    -4.9770 ha         1 0US       0.165500
     43 H15          8.9740     1.9710    -3.3780 ha         1 0US       0.189000
     44 H21          8.9890     2.6710    -1.1100 h1         1 0US       0.061200
     45 H21A         7.4300     3.5060    -1.2770 h1         1 0US       0.061200
     46 HN5          6.3630     1.3420    -1.4080 hn         1 0US       0.479000
     47 H7           4.0990     1.6970     0.8060 ha         1 0US       0.163000
     48 H22          6.9080    -1.5770     0.4180 ha         1 0US       0.137000
     49 H26          5.0220    -3.1850     0.4020 ha         1 0US       0.124000
     50 H23          2.7030    -2.4130     0.5780 ha         1 0US       0.112000
     51 HN3          1.1220    -1.6400     0.8040 hn         1 0US       0.326500
     52 H10         -3.3680     2.3260     1.4260 ha         1 0US       0.147000
     53 H12         -6.9100     1.1550     2.1850 h1         1 0US       0.034700
     54 H12A        -5.7480     2.3330     2.7960 h1         1 0US       0.034700
     55 H24         -5.9440     1.1040    -0.7170 h1         1 0US       0.029700
     56 H24A        -7.6430     1.3170    -0.2710 h1         1 0US       0.029700
     57 H29         -5.9200     3.2370    -1.9450 hc         1 0US       0.046700
     58 H29A        -7.2270     2.2190    -2.5410 hc         1 0US       0.046700
     59 H30         -7.9610     4.6260    -2.1960 hc         1 0US       0.037200
     60 H30A        -8.9060     3.4910    -1.2310 hc         1 0US       0.037200
     61 H28         -6.5560     5.2180    -0.2370 hc         1 0US       0.046700
     62 H28A        -8.2510     5.4040     0.2050 hc         1 0US       0.046700
     63 H25         -8.2540     3.2120     1.3610 h1         1 0US       0.029700
     64 H25A        -6.9520     4.2320     1.9910 h1         1 0US       0.029700
     65 H17         -6.0540    -1.0330     1.9360 ha         1 0US       0.109000
     66 H9          -4.2010    -2.5910     1.5680 ha         1 0US       0.119000
     67 H8          -0.3730    -3.3100     1.1360 h1         1 0US       0.041700
     68 H14         -1.7610    -5.0560     0.4700 hc         1 0US       0.050950
     69 H14A        -2.7340    -4.0930     1.5240 hc         1 0US       0.050950
     70 H19         -3.9930    -4.8830    -0.5300 hc         1 0US       0.054450
     71 H19A        -3.9390    -3.1310    -0.5540 hc         1 0US       0.054450
     72 H13          0.2190    -2.2340    -1.1230 hc         1 0US       0.050950
     73 H13A        -0.0070    -3.9630    -1.1190 hc         1 0US       0.050950
     74 H18         -2.1120    -1.9090    -2.0230 hc         1 0US       0.054450
     75 H18A        -1.1070    -2.8930    -3.0820 hc         1 0US       0.054450
     76 H20         -2.1060    -4.9880    -2.1540 hc         1 0US       0.055700
     77 H27         -4.2530    -3.0180    -3.0620 h1         1 0US       0.020200
     78 H27A        -3.1260    -3.8720    -4.1290 h1         1 0US       0.020200
     79 HO4         -5.1620    -4.9410    -3.9690 ho         1 0US       0.445000
@<TRIPOS>BOND
     1     1     2 2   
     2     1    41 1   
     3     1    42 1   
     4     2     3 1   
     5     2    43 1   
     6     3     4 1   
     7     3    44 1   
     8     3    45 1   
     9     4     5 1   
    10     4    46 1   
    11     5     6 2   
    12     5     7 2   
    13     5     8 1   
    14     8     9 ar  
    15     8    10 ar  
    16     9    13 ar  
    17     9    47 1   
    18    10    11 ar  
    19    10    48 1   
    20    11    12 ar  
    21    11    49 1   
    22    12    13 ar  
    23    12    50 1   
    24    13    14 1   
    25    14    15 2   
    26    14    16 1   
    27    16    17 1   
    28    16    51 1   
    29    17    18 2   
    30    17    32 1   
    31    18    19 1   
    32    19    20 ar  
    33    19    31 ar  
    34    20    21 ar  
    35    20    52 1   
    36    21    22 1   
    37    21    29 ar  
    38    22    23 1   
    39    22    53 1   
    40    22    54 1   
    41    23    24 1   
    42    23    28 1   
    43    24    25 1   
    44    24    55 1   
    45    24    56 1   
    46    25    26 1   
    47    25    57 1   
    48    25    58 1   
    49    26    27 1   
    50    26    59 1   
    51    26    60 1   
    52    27    28 1   
    53    27    61 1   
    54    27    62 1   
    55    28    63 1   
    56    28    64 1   
    57    29    30 ar  
    58    29    65 1   
    59    30    31 ar  
    60    30    66 1   
    61    31    32 1   
    62    32    33 1   
    63    33    34 1   
    64    33    36 1   
    65    33    67 1   
    66    34    35 1   
    67    34    68 1   
    68    34    69 1   
    69    35    38 1   
    70    35    70 1   
    71    35    71 1   
    72    36    37 1   
    73    36    72 1   
    74    36    73 1   
    75    37    38 1   
    76    37    74 1   
    77    37    75 1   
    78    38    39 1   
    79    38    76 1   
    80    39    40 1   
    81    39    77 1   
    82    39    78 1   
    83    40    79 1   
@<TRIPOS>SUBSTRUCTURE
     1 0US         1 TEMP              0 ****  ****    0 ROOT
