@<TRIPOS>MOLECULE
0US
   79    83     1     0     0
SMALL
bcc


@<TRIPOS>ATOM
      1 C16          6.5700     2.0860    -4.2050 c2         1 0US      -0.203000
      2 C15          6.8290     2.6370    -3.0260 c2         1 0US      -0.176200
      3 C21          6.1130     2.2720    -1.7660 c3         1 0US       0.228000
      4 N5           7.0890     1.7610    -0.8000 n7         1 0US      -0.806100
      5 S1           6.6190     1.5110     0.7560 sy         1 0US       1.290200
      6 O1           7.7660     0.9460     1.4440 o          1 0US      -0.596800
      7 O2           6.0110     2.7430     1.2260 o          1 0US      -0.596800
      8 C5           5.3490     0.2690     0.6960 ca         1 0US      -0.315500
      9 C7           4.0200     0.6510     0.6460 ca         1 0US       0.021000
     10 C22          5.7210    -1.0700     0.6480 ca         1 0US      -0.020000
     11 C26          4.7350    -2.0350     0.5470 ca         1 0US      -0.155000
     12 C23          3.3970    -1.6670     0.5040 ca         1 0US      -0.060000
     13 C6           3.0320    -0.3260     0.5610 ca         1 0US      -0.173600
     14 C4           1.6130     0.1380     0.4770 c          1 0US       0.693700
     15 O3           1.3270     1.2210     0.0180 o          1 0US      -0.520100
     16 N3           0.6920    -0.7550     0.9460 ns         1 0US      -0.493400
     17 C1          -0.6780    -0.5600     0.9620 cc         1 0US       0.472400
     18 N1          -1.2620     0.5850     1.1270 nd         1 0US      -0.557100
     19 C2          -2.5980     0.2820     1.1750 ca         1 0US       0.070400
     20 C10         -3.6670     1.1540     1.3570 ca         1 0US      -0.043000
     21 C11         -4.9440     0.6310     1.4620 ca         1 0US      -0.110300
     22 C12         -6.1250     1.5450     1.6770 c3         1 0US       0.222100
     23 N4          -6.1040     2.6890     0.7910 n3         1 0US      -0.721600
     24 C24         -6.3260     2.3070    -0.5920 c6         1 0US       0.169300
     25 C29         -6.1560     3.4950    -1.5260 c6         1 0US      -0.075900
     26 C30         -7.0900     4.6310    -1.1260 c6         1 0US      -0.075400
     27 C28         -6.8990     4.9640     0.3480 c6         1 0US      -0.075900
     28 C25         -7.0400     3.7180     1.2100 c6         1 0US       0.169300
     29 C17         -5.1220    -0.7570     1.4040 ca         1 0US      -0.116000
     30 C9          -4.0710    -1.6410     1.2190 ca         1 0US      -0.137000
     31 C3          -2.7940    -1.1080     1.0600 ca         1 0US      -0.059200
     32 N2          -1.5240    -1.6340     0.8640 na         1 0US      -0.179300
     33 C8          -1.0500    -2.9950     0.5410 c6         1 0US       0.079000
     34 C14         -2.1270    -4.0770     0.5800 c6         1 0US      -0.086900
     35 C19         -3.0480    -4.1330    -0.6390 c6         1 0US      -0.072900
     36 C13         -0.3430    -3.0470    -0.8210 c6         1 0US      -0.086900
     37 C18         -1.2980    -3.0270    -2.0040 c6         1 0US      -0.072900
     38 C20         -2.2670    -4.2030    -1.9470 c6         1 0US      -0.064700
     39 C27         -3.1760    -4.1980    -3.1620 c3         1 0US       0.143400
     40 O4          -4.0210    -5.3270    -3.1270 oh         1 0US      -0.600800
     41 H16          5.8150     1.3180    -4.3230 ha         1 0US       0.115500
     42 H16A         7.1040     2.3860    -5.0960 ha         1 0US       0.115500
     43 H15          7.5950     3.3990    -2.9340 ha         1 0US       0.139000
     44 H21          5.6490     3.1620    -1.3390 h1         1 0US       0.061200
     45 H21A         5.3190     1.5450    -1.9720 h1         1 0US       0.061200
     46 HN5          7.6410     0.9860    -1.1540 hn         1 0US       0.423800
     47 H7           3.7410     1.6950     0.6870 ha         1 0US       0.181000
     48 H22          6.7610    -1.3650     0.6910 ha         1 0US       0.155000
     49 H26          5.0060    -3.0810     0.4970 ha         1 0US       0.142000
     50 H23          2.6570    -2.4510     0.4010 ha         1 0US       0.130000
     51 HN3          1.0300    -1.5840     1.4130 hn         1 0US       0.326500
     52 H10         -3.4990     2.2220     1.4160 ha         1 0US       0.165000
     53 H12         -7.0570     0.9610     1.5850 h1         1 0US       0.034700
     54 H12A        -6.1050     1.9190     2.7070 h1         1 0US       0.034700
     55 H24         -5.6170     1.5200    -0.8600 h1         1 0US       0.029700
     56 H24A        -7.3390     1.8830    -0.7270 h1         1 0US       0.029700
     57 H29         -5.1170     3.8380    -1.4830 hc         1 0US       0.046700
     58 H29A        -6.3480     3.1780    -2.5530 hc         1 0US       0.046700
     59 H30         -6.9170     5.5120    -1.7480 hc         1 0US       0.037200
     60 H30A        -8.1270     4.3220    -1.2980 hc         1 0US       0.037200
     61 H28         -5.9030     5.3900     0.5020 hc         1 0US       0.046700
     62 H28A        -7.6220     5.7150     0.6750 hc         1 0US       0.046700
     63 H25         -8.0840     3.3580     1.1630 h1         1 0US       0.029700
     64 H25A        -6.8400     3.9660     2.2550 h1         1 0US       0.029700
     65 H17         -6.1210    -1.1630     1.5130 ha         1 0US       0.127000
     66 H9          -4.2740    -2.6990     1.2200 ha         1 0US       0.137000
     67 H8          -0.3240    -3.2520     1.3170 h1         1 0US       0.041700
     68 H14         -1.5750    -5.0200     0.6230 hc         1 0US       0.050950
     69 H14A        -2.6910    -4.0350     1.5130 hc         1 0US       0.050950
     70 H19         -3.7080    -4.9960    -0.5340 hc         1 0US       0.054450
     71 H19A        -3.6960    -3.2550    -0.6900 hc         1 0US       0.054450
     72 H13          0.3900    -2.2480    -0.9260 hc         1 0US       0.050950
     73 H13A         0.2290    -3.9800    -0.8370 hc         1 0US       0.050950
     74 H18         -1.8590    -2.0850    -2.0210 hc         1 0US       0.054450
     75 H18A        -0.7170    -3.0560    -2.9290 hc         1 0US       0.054450
     76 H20         -1.6750    -5.1280    -1.9650 hc         1 0US       0.055700
     77 H27         -3.7550    -3.2630    -3.1690 h1         1 0US       0.020200
     78 H27A        -2.5570    -4.1920    -4.0700 h1         1 0US       0.020200
     79 HO4         -4.5840    -5.3050    -3.9060 ho         1 0US       0.406000
@<TRIPOS>BOND
     1     1     2 2   
     2     1    41 1   
     3     1    42 1   
     4     2     3 1   
     5     2    43 1   
     6     3     4 1   
     7     3    44 1   
     8     3    45 1   
     9     4     5 1   
    10     4    46 1   
    11     5     6 2   
    12     5     7 2   
    13     5     8 1   
    14     8     9 ar  
    15     8    10 ar  
    16     9    13 ar  
    17     9    47 1   
    18    10    11 ar  
    19    10    48 1   
    20    11    12 ar  
    21    11    49 1   
    22    12    13 ar  
    23    12    50 1   
    24    13    14 1   
    25    14    15 2   
    26    14    16 1   
    27    16    17 1   
    28    16    51 1   
    29    17    18 2   
    30    17    32 1   
    31    18    19 1   
    32    19    20 ar  
    33    19    31 ar  
    34    20    21 ar  
    35    20    52 1   
    36    21    22 1   
    37    21    29 ar  
    38    22    23 1   
    39    22    53 1   
    40    22    54 1   
    41    23    24 1   
    42    23    28 1   
    43    24    25 1   
    44    24    55 1   
    45    24    56 1   
    46    25    26 1   
    47    25    57 1   
    48    25    58 1   
    49    26    27 1   
    50    26    59 1   
    51    26    60 1   
    52    27    28 1   
    53    27    61 1   
    54    27    62 1   
    55    28    63 1   
    56    28    64 1   
    57    29    30 ar  
    58    29    65 1   
    59    30    31 ar  
    60    30    66 1   
    61    31    32 1   
    62    32    33 1   
    63    33    34 1   
    64    33    36 1   
    65    33    67 1   
    66    34    35 1   
    67    34    68 1   
    68    34    69 1   
    69    35    38 1   
    70    35    70 1   
    71    35    71 1   
    72    36    37 1   
    73    36    72 1   
    74    36    73 1   
    75    37    38 1   
    76    37    74 1   
    77    37    75 1   
    78    38    39 1   
    79    38    76 1   
    80    39    40 1   
    81    39    77 1   
    82    39    78 1   
    83    40    79 1   
@<TRIPOS>SUBSTRUCTURE
     1 0US         1 TEMP              0 ****  ****    0 ROOT
