@<TRIPOS>MOLECULE
0UT
   28    29     1     0     0
SMALL
abcg2


@<TRIPOS>ATOM
      1 O01         -0.3420    -2.7820     1.2040 o          1 0UT      -0.694500
      2 C02         -0.0060    -1.9460     0.3550 c          1 0UT       0.741000
      3 O03          0.3050    -2.1420    -0.8330 o          1 0UT      -0.694500
      4 C04          0.0060    -0.4450     0.8090 c3         1 0UT       0.095600
      5 O05          0.0340    -0.4250     2.2180 oh         1 0UT      -0.615000
      6 C07          1.2740     0.2360     0.3090 ca         1 0UT      -0.047800
      7 H2           0.1370     0.4910     2.4990 ho         1 0UT       0.399000
      8 C1          -1.5020     0.3060    -1.0990 ca         1 0UT      -0.095500
      9 C2          -2.6800     0.8560    -1.5790 ca         1 0UT      -0.130250
     10 C3          -3.6670     1.2850    -0.6990 ca         1 0UT      -0.136500
     11 C4          -3.4610     1.1510     0.6650 ca         1 0UT      -0.130250
     12 C5          -2.2780     0.6000     1.1450 ca         1 0UT      -0.095500
     13 C06         -1.2770     0.1780     0.2740 ca         1 0UT      -0.047800
     14 H11         -4.5860     1.7160    -1.0750 ha         1 0UT       0.087500
     15 H12         -4.2220     1.4720     1.3650 ha         1 0UT       0.091500
     16 H13         -2.1460     0.4960     2.2140 ha         1 0UT       0.125000
     17 C6           2.4980    -0.3730     0.6000 ca         1 0UT      -0.095500
     18 C7           3.6960     0.2310     0.2620 ca         1 0UT      -0.130250
     19 C8           3.6990     1.4710    -0.3710 ca         1 0UT      -0.136500
     20 C9           2.5010     2.0890    -0.6560 ca         1 0UT      -0.130250
     21 C10          1.2950     1.4800    -0.3100 ca         1 0UT      -0.095500
     22 H3           2.5150    -1.3320     1.1050 ha         1 0UT       0.125000
     23 H4           4.6320    -0.2620     0.4900 ha         1 0UT       0.091500
     24 H5           4.6360     1.9440    -0.6360 ha         1 0UT       0.087500
     25 H6           2.4880     3.0560    -1.1430 ha         1 0UT       0.091500
     26 H7           0.3690     1.9940    -0.5290 ha         1 0UT       0.125000
     27 H9          -0.7480    -0.0280    -1.7980 ha         1 0UT       0.125000
     28 H10         -2.8310     0.9520    -2.6470 ha         1 0UT       0.091500
@<TRIPOS>BOND
     1     1     2 1   
     2     2     3 1   
     3     2     4 1   
     4     4     5 1   
     5     4     6 1   
     6     4    13 1   
     7     5     7 1   
     8     6    17 ar  
     9     6    21 ar  
    10     8     9 ar  
    11     8    13 ar  
    12     8    27 1   
    13     9    10 ar  
    14     9    28 1   
    15    10    11 ar  
    16    10    14 1   
    17    11    12 ar  
    18    11    15 1   
    19    12    13 ar  
    20    12    16 1   
    21    17    18 ar  
    22    17    22 1   
    23    18    19 ar  
    24    18    23 1   
    25    19    20 ar  
    26    19    24 1   
    27    20    21 ar  
    28    20    25 1   
    29    21    26 1   
@<TRIPOS>SUBSTRUCTURE
     1 0UT         1 TEMP              0 ****  ****    0 ROOT
