@<TRIPOS>MOLECULE
0UT
   28    29     1     0     0
SMALL
No Charge or Current Charge


@<TRIPOS>ATOM
      1 O01          0.0270    -2.6940     1.8220 o          1 0UT      -0.694500
      2 C02         -0.0430    -1.9660     0.8360 c          1 0UT       0.741000
      3 O03         -0.1290    -2.4200    -0.3010 o          1 0UT      -0.694500
      4 C04         -0.0080    -0.3820     1.0270 c3         1 0UT       0.095600
      5 O05         -0.0100     0.0070     2.4290 oh         1 0UT      -0.615000
      6 C07          1.2850     0.2360     0.4390 ca         1 0UT      -0.047800
      7 H2           0.1020     0.9800     2.4510 ho         1 0UT       0.399000
      8 C1          -1.2880     0.4350    -1.0530 ca         1 0UT      -0.095500
      9 C2          -2.4350     0.9410    -1.6870 ca         1 0UT      -0.130250
     10 C3          -3.5950     1.2000    -0.9420 ca         1 0UT      -0.136500
     11 C4          -3.6080     0.9440     0.4370 ca         1 0UT      -0.130250
     12 C5          -2.4620     0.4380     1.0730 ca         1 0UT      -0.095500
     13 C06         -1.2760     0.1900     0.3400 ca         1 0UT      -0.047800
     14 H11         -4.4830     1.5910    -1.4340 ha         1 0UT       0.087500
     15 H12         -4.5100     1.1330     1.0150 ha         1 0UT       0.091500
     16 H13         -2.5070     0.2340     2.1410 ha         1 0UT       0.125000
     17 C6           2.4460    -0.5400     0.2030 ca         1 0UT      -0.095500
     18 C7           3.6140     0.0520    -0.3090 ca         1 0UT      -0.130250
     19 C8           3.6490     1.4280    -0.5810 ca         1 0UT      -0.136500
     20 C9           2.5160     2.2150    -0.3310 ca         1 0UT      -0.130250
     21 C10          1.3470     1.6270     0.1820 ca         1 0UT      -0.095500
     22 H3           2.4610    -1.6050     0.4170 ha         1 0UT       0.125000
     23 H4           4.4960    -0.5580    -0.4910 ha         1 0UT       0.091500
     24 H5           4.5540     1.8840    -0.9760 ha         1 0UT       0.087500
     25 H6           2.5420     3.2840    -0.5300 ha         1 0UT       0.091500
     26 H7           0.4830     2.2590     0.3760 ha         1 0UT       0.125000
     27 H9          -0.4040     0.2280    -1.6530 ha         1 0UT       0.125000
     28 H10         -2.4250     1.1290    -2.7590 ha         1 0UT       0.091500
@<TRIPOS>BOND
     1     1     2 1   
     2     2     3 1   
     3     2     4 1   
     4     4     5 1   
     5     4     6 1   
     6     4    13 1   
     7     5     7 1   
     8     6    17 ar  
     9     6    21 ar  
    10     8     9 ar  
    11     8    13 ar  
    12     8    27 1   
    13     9    10 ar  
    14     9    28 1   
    15    10    11 ar  
    16    10    14 1   
    17    11    12 ar  
    18    11    15 1   
    19    12    13 ar  
    20    12    16 1   
    21    17    18 ar  
    22    17    22 1   
    23    18    19 ar  
    24    18    23 1   
    25    19    20 ar  
    26    19    24 1   
    27    20    21 ar  
    28    20    25 1   
    29    21    26 1   
@<TRIPOS>SUBSTRUCTURE
     1 0UT         1 TEMP              0 ****  ****    0 ROOT
