@<TRIPOS>MOLECULE
0UU
   69    73     1     0     0
SMALL
bcc


@<TRIPOS>ATOM
      1 C28         -0.0940    -6.3740    -0.2030 c3         1 0UU       0.128700
      2 O2           0.2780    -5.1290     0.3890 os         1 0UU      -0.422900
      3 C27         -0.6200    -4.1520     0.3840 c          1 0UU       0.642100
      4 O3          -1.7250    -4.2750    -0.0830 o          1 0UU      -0.530000
      5 C15         -0.0760    -2.8950     1.0210 c6         1 0UU      -0.120700
      6 C16         -1.1480    -1.8220     1.1390 c6         1 0UU      -0.068400
      7 C17         -0.5970    -0.5400     1.7620 c6         1 0UU      -0.088400
      8 C14          1.1140    -2.3410     0.2300 c6         1 0UU      -0.068400
      9 C13          1.6770    -1.1090     0.9200 c6         1 0UU      -0.088400
     10 C12          0.6590     0.0250     1.1020 c6         1 0UU       0.079000
     11 N2           0.4260     0.7690    -0.1510 na         1 0UU      -0.180300
     12 C3          -0.7090     0.9560    -0.9280 ca         1 0UU      -0.063200
     13 C5          -2.0580     0.6430    -0.7800 ca         1 0UU      -0.114000
     14 C6          -2.9380     1.0050    -1.7890 ca         1 0UU      -0.078300
     15 C18         -4.3890     0.5970    -1.6840 c3         1 0UU       0.221100
     16 N3          -4.8600     0.5640    -0.3190 n3         1 0UU      -0.737600
     17 C7          -6.0080    -0.3030    -0.1320 c6         1 0UU       0.172800
     18 C8          -6.3460    -0.4390     1.3450 c6         1 0UU      -0.075400
     19 C9          -6.5930     0.9270     1.9710 c6         1 0UU      -0.075400
     20 C10         -5.4100     1.8470     1.6970 c6         1 0UU      -0.075400
     21 C11         -5.0960     1.8940     0.2090 c6         1 0UU       0.172800
     22 C4          -2.4810     1.6980    -2.9190 ca         1 0UU      -0.148000
     23 C2          -1.1520     2.0470    -3.0570 ca         1 0UU      -0.073000
     24 C1          -0.2650     1.6830    -2.0480 ca         1 0UU       0.075400
     25 N1           1.0660     1.9870    -1.9310 nc         1 0UU      -0.562100
     26 C19          1.4230     1.4480    -0.8070 cd         1 0UU       0.476400
     27 N4           2.6760     1.5680    -0.2320 ns         1 0UU      -0.497400
     28 C20          3.8570     1.6420    -0.9200 c          1 0UU       0.693700
     29 O1           3.9280     1.6060    -2.1290 o          1 0UU      -0.525100
     30 C21          5.0700     1.7620    -0.0610 ca         1 0UU      -0.154600
     31 C22          5.1520     1.1910     1.2080 ca         1 0UU      -0.090000
     32 C23          6.3220     1.2940     1.9460 ca         1 0UU      -0.135500
     33 C24          7.4140     1.9760     1.4280 ca         1 0UU      -0.104000
     34 C25          7.3380     2.5450     0.1630 ca         1 0UU      -0.135500
     35 C26          6.1770     2.4280    -0.5840 ca         1 0UU      -0.090000
     36 H1          -0.9400    -6.8240     0.3150 h1         1 0UU       0.048367
     37 H2          -0.3400    -6.2580    -1.2580 h1         1 0UU       0.048367
     38 H3           0.7720    -7.0210    -0.1050 h1         1 0UU       0.048367
     39 H4           0.2850    -3.1680     2.0200 hc         1 0UU       0.070700
     40 H5          -1.5540    -1.6340     0.1450 hc         1 0UU       0.065450
     41 H6          -1.9810    -2.1720     1.7520 hc         1 0UU       0.065450
     42 H7          -1.3710     0.2230     1.8510 hc         1 0UU       0.053700
     43 H8          -0.3020    -0.7610     2.7920 hc         1 0UU       0.053700
     44 H9           1.9050    -3.0860     0.1430 hc         1 0UU       0.065450
     45 H10          0.7970    -2.0960    -0.7890 hc         1 0UU       0.065450
     46 H11          2.0180    -1.3870     1.9230 hc         1 0UU       0.053700
     47 H12          2.5660    -0.7700     0.3890 hc         1 0UU       0.053700
     48 H13          1.0750     0.7490     1.8090 h1         1 0UU       0.042700
     49 H14         -2.4700     0.1630     0.0910 ha         1 0UU       0.157000
     50 H15         -5.0030     1.2510    -2.3270 h1         1 0UU       0.039200
     51 H16         -4.4940    -0.4100    -2.0990 h1         1 0UU       0.039200
     52 H18         -6.8970     0.0700    -0.6740 h1         1 0UU       0.031950
     53 H19         -5.7740    -1.2850    -0.5500 h1         1 0UU       0.031950
     54 H20         -7.2210    -1.0840     1.4590 hc         1 0UU       0.043950
     55 H21         -5.5130    -0.9340     1.8550 hc         1 0UU       0.043950
     56 H22         -7.4990     1.3650     1.5370 hc         1 0UU       0.038200
     57 H23         -6.7720     0.8360     3.0440 hc         1 0UU       0.038200
     58 H24         -5.6140     2.8590     2.0560 hc         1 0UU       0.043950
     59 H25         -4.5270     1.4880     2.2350 hc         1 0UU       0.043950
     60 H26         -4.2070     2.5060     0.0420 h1         1 0UU       0.031950
     61 H27         -5.9260     2.3920    -0.3270 h1         1 0UU       0.031950
     62 H28         -3.1910     1.9800    -3.6880 ha         1 0UU       0.129000
     63 H29         -0.8050     2.6080    -3.9160 ha         1 0UU       0.148000
     64 H30          2.7020     1.7170     0.7650 hn         1 0UU       0.326500
     65 H31          4.3250     0.6320     1.6280 ha         1 0UU       0.140500
     66 H32          6.3810     0.8350     2.9240 ha         1 0UU       0.136500
     67 H33          8.3240     2.0590     2.0070 ha         1 0UU       0.135000
     68 H34          8.1870     3.0780    -0.2440 ha         1 0UU       0.136500
     69 H35          6.1260     2.8660    -1.5720 ha         1 0UU       0.140500
@<TRIPOS>BOND
     1     1     2 1   
     2     1    36 1   
     3     1    37 1   
     4     1    38 1   
     5     2     3 1   
     6     3     4 2   
     7     3     5 1   
     8     5     6 1   
     9     5     8 1   
    10     5    39 1   
    11     6     7 1   
    12     6    40 1   
    13     6    41 1   
    14     7    10 1   
    15     7    42 1   
    16     7    43 1   
    17     8     9 1   
    18     8    44 1   
    19     8    45 1   
    20     9    10 1   
    21     9    46 1   
    22     9    47 1   
    23    10    11 1   
    24    10    48 1   
    25    11    12 1   
    26    11    26 1   
    27    12    13 ar  
    28    12    24 ar  
    29    13    14 ar  
    30    13    49 1   
    31    14    15 1   
    32    14    22 ar  
    33    15    16 1   
    34    15    50 1   
    35    15    51 1   
    36    16    17 1   
    37    16    21 1   
    38    17    18 1   
    39    17    52 1   
    40    17    53 1   
    41    18    19 1   
    42    18    54 1   
    43    18    55 1   
    44    19    20 1   
    45    19    56 1   
    46    19    57 1   
    47    20    21 1   
    48    20    58 1   
    49    20    59 1   
    50    21    60 1   
    51    21    61 1   
    52    22    23 ar  
    53    22    62 1   
    54    23    24 ar  
    55    23    63 1   
    56    24    25 1   
    57    25    26 2   
    58    26    27 1   
    59    27    28 1   
    60    27    64 1   
    61    28    29 2   
    62    28    30 1   
    63    30    31 ar  
    64    30    35 ar  
    65    31    32 ar  
    66    31    65 1   
    67    32    33 ar  
    68    32    66 1   
    69    33    34 ar  
    70    33    67 1   
    71    34    35 ar  
    72    34    68 1   
    73    35    69 1   
@<TRIPOS>SUBSTRUCTURE
     1 0UU         1 TEMP              0 ****  ****    0 ROOT
