@<TRIPOS>MOLECULE
0UV
   86    90     1     0     0
SMALL
abcg2


@<TRIPOS>ATOM
      1 C24         15.8910    10.8490    10.4340 c3         1 0UV      -0.106600
      2 C23         17.3070    11.1600     9.9530 c3         1 0UV       0.105700
      3 C25         18.2620    11.4410    11.1090 c3         1 0UV      -0.106600
      4 N5          17.8300    10.0640     9.1410 ns         1 0UV      -0.503900
      5 C22         17.9320    10.0850     7.8000 c          1 0UV       0.604100
      6 O2          17.6150    11.0710     7.1290 o          1 0UV      -0.623100
      7 C19         18.4280     8.7960     7.1250 c6         1 0UV      -0.140700
      8 C20         19.1780     9.1120     5.8230 c6         1 0UV      -0.063400
      9 C21         20.5420     9.7520     6.0870 c6         1 0UV      -0.095900
     10 C18         19.2990     7.8800     7.9970 c6         1 0UV      -0.063400
     11 C17         20.6550     8.5120     8.3080 c6         1 0UV      -0.095900
     12 C16         21.3860     8.8740     7.0120 c6         1 0UV       0.117300
     13 N1          22.6980     9.4650     7.3060 na         1 0UV      -0.203600
     14 C4          23.9170     8.8200     7.1070 ca         1 0UV      -0.051200
     15 C3          24.2300     7.5960     6.5400 ca         1 0UV      -0.078000
     16 C2          25.5720     7.2140     6.5020 ca         1 0UV      -0.083300
     17 C15         25.9450     5.8860     5.8850 c3         1 0UV       0.217100
     18 N4          25.1150     4.7900     6.3700 n3         1 0UV      -0.732600
     19 C30         25.3540     4.5000     7.7800 c6         1 0UV       0.166800
     20 C29         24.3810     3.4500     8.3020 c6         1 0UV      -0.068400
     21 C26         25.2680     3.5850     5.5600 c6         1 0UV       0.166800
     22 C27         24.2820     2.5080     5.9950 c6         1 0UV      -0.068400
     23 C28         24.4630     2.1620     7.4770 c6         1 0UV      -0.048700
     24 C31         23.5280     1.0390     7.9730 c3         1 0UV       0.184000
     25 C32         22.0430     1.3770     7.8380 c3         1 0UV      -0.116100
     26 C33         23.8490     0.6550     9.4190 c3         1 0UV      -0.116100
     27 O3          23.8310    -0.0960     7.1250 oh         1 0UV      -0.671000
     28 C1          26.5590     8.0590     7.0220 ca         1 0UV      -0.103000
     29 C6          26.2530     9.2980     7.5830 ca         1 0UV      -0.101000
     30 C5          24.9180     9.6620     7.6210 ca         1 0UV      -0.035200
     31 N2          24.2670    10.7800     8.1130 na         1 0UV      -0.358600
     32 C7          22.9220    10.6640     7.9300 cc         1 0UV       0.662300
     33 N3          21.9600    11.5080     8.2530 nf         1 0UV      -0.821100
     34 C8          22.2640    12.6650     8.8880 c          1 0UV       0.731100
     35 O1          23.3940    13.0140     9.2830 o          1 0UV      -0.672100
     36 C9          21.0910    13.5680     9.1160 ca         1 0UV      -0.147600
     37 C10         19.8630    13.3480     8.4880 ca         1 0UV      -0.035000
     38 C11         18.7950    14.2100     8.6930 ca         1 0UV      -0.170500
     39 C12         18.9700    15.2800     9.5510 ca         1 0UV       0.178000
     40 F1          17.9230    16.1140     9.7690 f          1 0UV      -0.186000
     41 C13         20.1680    15.5320    10.1960 ca         1 0UV      -0.170500
     42 C14         21.2320    14.6710     9.9620 ca         1 0UV      -0.035000
     43 H1          15.4950    11.6850    11.0130 hc         1 0UV       0.041867
     44 H2          15.2270    10.6700     9.5870 hc         1 0UV       0.041867
     45 H3          15.8870     9.9600    11.0700 hc         1 0UV       0.041867
     46 H4          17.2730    12.0260     9.2970 h1         1 0UV       0.083700
     47 H5          17.8940    12.2760    11.7070 hc         1 0UV       0.041867
     48 H6          18.3460    10.5660    11.7590 hc         1 0UV       0.041867
     49 H7          19.2550    11.6940    10.7360 hc         1 0UV       0.041867
     50 H8          18.0790     9.2190     9.6310 hn         1 0UV       0.307500
     51 H9          17.5100     8.2550     6.8670 hc         1 0UV       0.068700
     52 H10         18.5790     9.7710     5.1970 hc         1 0UV       0.049200
     53 H11         19.3100     8.1740     5.2760 hc         1 0UV       0.049200
     54 H12         21.0770     9.9010     5.1460 hc         1 0UV       0.067200
     55 H13         20.4100    10.7290     6.5460 hc         1 0UV       0.067200
     56 H14         18.7930     7.5890     8.9210 hc         1 0UV       0.049200
     57 H15         19.4530     6.9490     7.4440 hc         1 0UV       0.049200
     58 H16         21.2730     7.8210     8.8850 hc         1 0UV       0.067200
     59 H17         20.5250     9.4140     8.9050 hc         1 0UV       0.067200
     60 H18         21.6060     7.9460     6.4830 h1         1 0UV       0.056700
     61 H19         23.4700     6.9320     6.1540 ha         1 0UV       0.140000
     62 H20         25.8110     5.9400     4.8000 h1         1 0UV       0.040700
     63 H21         27.0170     5.6950     6.0610 h1         1 0UV       0.040700
     64 H23         26.3920     4.1500     7.9320 h1         1 0UV       0.032950
     65 H24         25.2430     5.4240     8.3490 h1         1 0UV       0.032950
     66 H25         24.6080     3.2570     9.3520 hc         1 0UV       0.050450
     67 H26         23.3680     3.8600     8.2580 hc         1 0UV       0.050450
     68 H27         25.0990     3.8510     4.5140 h1         1 0UV       0.032950
     69 H28         26.2990     3.1920     5.6330 h1         1 0UV       0.032950
     70 H29         23.2680     2.8770     5.8180 hc         1 0UV       0.050450
     71 H30         24.4210     1.6200     5.3780 hc         1 0UV       0.050450
     72 H31         25.4800     1.7660     7.5940 hc         1 0UV       0.054700
     73 H32         21.4420     0.5330     8.1880 hc         1 0UV       0.041533
     74 H33         21.7760     2.2470     8.4390 hc         1 0UV       0.041533
     75 H34         21.7780     1.5770     6.8000 hc         1 0UV       0.041533
     76 H35         23.2880    -0.2410     9.6950 hc         1 0UV       0.041533
     77 H36         24.9140     0.4460     9.5300 hc         1 0UV       0.041533
     78 H37         23.5740     1.4460    10.1170 hc         1 0UV       0.041533
     79 H38         23.2700    -0.8300     7.4060 ho         1 0UV       0.438000
     80 H39         27.5920     7.7350     6.9920 ha         1 0UV       0.118000
     81 H40         27.0230     9.9430     7.9840 ha         1 0UV       0.130000
     82 H42         19.7380    12.4960     7.8370 ha         1 0UV       0.141500
     83 H43         17.8420    14.0560     8.2060 ha         1 0UV       0.136500
     84 H44         20.2590    16.3800    10.8620 ha         1 0UV       0.136500
     85 H45         22.1830    14.8440    10.4450 ha         1 0UV       0.141500
     86 H22         24.6410    11.5940     8.5830 hn         1 0UV       0.408000
@<TRIPOS>BOND
     1     1     2 1   
     2     1    43 1   
     3     1    44 1   
     4     1    45 1   
     5     2     3 1   
     6     2     4 1   
     7     2    46 1   
     8     3    47 1   
     9     3    48 1   
    10     3    49 1   
    11     4     5 1   
    12     4    50 1   
    13     5     6 2   
    14     5     7 1   
    15     7     8 1   
    16     7    10 1   
    17     7    51 1   
    18     8     9 1   
    19     8    52 1   
    20     8    53 1   
    21     9    12 1   
    22     9    54 1   
    23     9    55 1   
    24    10    11 1   
    25    10    56 1   
    26    10    57 1   
    27    11    12 1   
    28    11    58 1   
    29    11    59 1   
    30    12    13 1   
    31    12    60 1   
    32    13    14 1   
    33    13    32 1   
    34    14    15 ar  
    35    14    30 ar  
    36    15    16 ar  
    37    15    61 1   
    38    16    17 1   
    39    16    28 ar  
    40    17    18 1   
    41    17    62 1   
    42    17    63 1   
    43    18    19 1   
    44    18    21 1   
    45    19    20 1   
    46    19    64 1   
    47    19    65 1   
    48    20    23 1   
    49    20    66 1   
    50    20    67 1   
    51    21    22 1   
    52    21    68 1   
    53    21    69 1   
    54    22    23 1   
    55    22    70 1   
    56    22    71 1   
    57    23    24 1   
    58    23    72 1   
    59    24    25 1   
    60    24    26 1   
    61    24    27 1   
    62    25    73 1   
    63    25    74 1   
    64    25    75 1   
    65    26    76 1   
    66    26    77 1   
    67    26    78 1   
    68    27    79 1   
    69    28    29 ar  
    70    28    80 1   
    71    29    30 ar  
    72    29    81 1   
    73    30    31 1   
    74    31    32 1   
    75    31    86 1   
    76    32    33 2   
    77    33    34 1   
    78    34    35 2   
    79    34    36 1   
    80    36    37 ar  
    81    36    42 ar  
    82    37    38 ar  
    83    37    82 1   
    84    38    39 ar  
    85    38    83 1   
    86    39    40 1   
    87    39    41 ar  
    88    41    42 ar  
    89    41    84 1   
    90    42    85 1   
@<TRIPOS>SUBSTRUCTURE
     1 0UV         1 TEMP              0 ****  ****    0 ROOT
