@<TRIPOS>MOLECULE
0UV
   86    90     1     0     0
SMALL
No Charge or Current Charge


@<TRIPOS>ATOM
      1 C24         16.7660    10.8530    11.0590 c3         1 0UV      -0.106600
      2 C23         16.9620    11.3450     9.6120 c3         1 0UV       0.105700
      3 C25         17.7540    12.6630     9.5470 c3         1 0UV      -0.106600
      4 N5          17.6160    10.3150     8.8060 ns         1 0UV      -0.503900
      5 C22         16.9580     9.3160     8.1220 c          1 0UV       0.604100
      6 O2          15.7370     9.2430     8.1210 o          1 0UV      -0.623100
      7 C19         17.8150     8.2970     7.3260 c6         1 0UV      -0.140700
      8 C20         18.7110     8.9480     6.2220 c6         1 0UV      -0.063400
      9 C21         20.0020     9.6270     6.7490 c6         1 0UV      -0.095900
     10 C18         18.6980     7.3900     8.2430 c6         1 0UV      -0.063400
     11 C17         19.9800     8.0750     8.7820 c6         1 0UV      -0.095900
     12 C16         20.8310     8.6540     7.6230 c6         1 0UV       0.117300
     13 N1          22.0790     9.2860     8.1250 na         1 0UV      -0.203600
     14 C4          23.3440     8.7970     7.8320 ca         1 0UV      -0.051200
     15 C3          23.7560     7.7330     7.0110 ca         1 0UV      -0.078000
     16 C2          25.1410     7.4590     6.9140 ca         1 0UV      -0.083300
     17 C15         25.6260     6.3050     6.0400 c3         1 0UV       0.217100
     18 N4          24.9820     5.0090     6.3630 n3         1 0UV      -0.732600
     19 C30         25.2560     4.5570     7.7560 c6         1 0UV       0.166800
     20 C29         24.4780     3.2650     8.1030 c6         1 0UV      -0.068400
     21 C26         25.3260     3.9500     5.3780 c6         1 0UV       0.166800
     22 C27         24.5440     2.6430     5.6510 c6         1 0UV      -0.068400
     23 C28         24.8010     2.1190     7.0970 c6         1 0UV      -0.048700
     24 C31         24.0820     0.7470     7.4180 c3         1 0UV       0.184000
     25 C32         22.5350     0.8140     7.3200 c3         1 0UV      -0.116100
     26 C33         24.4780     0.1970     8.8120 c3         1 0UV      -0.116100
     27 O3          24.5090    -0.2380     6.4740 oh         1 0UV      -0.671000
     28 C1          26.0710     8.2550     7.6310 ca         1 0UV      -0.103000
     29 C6          25.6290     9.3200     8.4440 ca         1 0UV      -0.101000
     30 C5          24.2530     9.5570     8.5150 ca         1 0UV      -0.035200
     31 N2          23.5740    10.5180     9.2290 na         1 0UV      -0.358600
     32 C7          22.2070    10.3820     8.9970 cc         1 0UV       0.662300
     33 N3          21.2480    11.0970     9.4880 nf         1 0UV      -0.821100
     34 C8          21.6160    12.2720    10.1530 c          1 0UV       0.731100
     35 O1          22.1080    12.2100    11.2680 o          1 0UV      -0.672100
     36 C9          21.3710    13.5740     9.4240 ca         1 0UV      -0.147600
     37 C10         20.9310    13.6050     8.0780 ca         1 0UV      -0.035000
     38 C11         20.7030    14.8330     7.4310 ca         1 0UV      -0.170500
     39 C12         20.9140    16.0360     8.1170 ca         1 0UV       0.178000
     40 F1          20.6940    17.2130     7.4930 f          1 0UV      -0.186000
     41 C13         21.3530    16.0230     9.4470 ca         1 0UV      -0.170500
     42 C14         21.5820    14.7980    10.0990 ca         1 0UV      -0.035000
     43 H1          16.2500    11.6120    11.6580 hc         1 0UV       0.041867
     44 H2          16.1620     9.9380    11.0770 hc         1 0UV       0.041867
     45 H3          17.7320    10.6380    11.5320 hc         1 0UV       0.041867
     46 H4          15.9680    11.5410     9.1830 h1         1 0UV       0.083700
     47 H5          17.2190    13.4600    10.0760 hc         1 0UV       0.041867
     48 H6          18.7380    12.5470    10.0140 hc         1 0UV       0.041867
     49 H7          17.8970    12.9800     8.5070 hc         1 0UV       0.041867
     50 H8          18.6270    10.3080     8.7670 hn         1 0UV       0.307500
     51 H9          17.0890     7.6440     6.8220 hc         1 0UV       0.068700
     52 H10         18.1200     9.6750     5.6470 hc         1 0UV       0.049200
     53 H11         19.0000     8.1690     5.5020 hc         1 0UV       0.049200
     54 H12         20.6120     9.9550     5.8950 hc         1 0UV       0.067200
     55 H13         19.7510    10.5390     7.3000 hc         1 0UV       0.067200
     56 H14         18.0970     7.0180     9.0840 hc         1 0UV       0.049200
     57 H15         18.9940     6.4970     7.6730 hc         1 0UV       0.049200
     58 H16         20.5770     7.3370     9.3350 hc         1 0UV       0.067200
     59 H17         19.7190     8.8520     9.5100 hc         1 0UV       0.067200
     60 H18         21.1030     7.8080     6.9800 h1         1 0UV       0.056700
     61 H19         23.0450     7.1210     6.4640 ha         1 0UV       0.140000
     62 H20         25.4170     6.5700     4.9940 h1         1 0UV       0.040700
     63 H21         26.7170     6.2140     6.1310 h1         1 0UV       0.040700
     64 H23         26.3330     4.3760     7.8920 h1         1 0UV       0.032950
     65 H24         24.9680     5.3350     8.4790 h1         1 0UV       0.032950
     66 H25         24.7350     2.9700     9.1270 hc         1 0UV       0.050450
     67 H26         23.4030     3.4880     8.0990 hc         1 0UV       0.050450
     68 H27         25.0930     4.2900     4.3580 h1         1 0UV       0.032950
     69 H28         26.4050     3.7360     5.4080 h1         1 0UV       0.032950
     70 H29         23.4740     2.8370     5.4970 hc         1 0UV       0.050450
     71 H30         24.8370     1.8900     4.9090 hc         1 0UV       0.050450
     72 H31         25.8780     1.9090     7.1780 hc         1 0UV       0.054700
     73 H32         22.0860    -0.1610     7.5480 hc         1 0UV       0.041533
     74 H33         22.1240     1.5380     8.0320 hc         1 0UV       0.041533
     75 H34         22.2080     1.1000     6.3140 hc         1 0UV       0.041533
     76 H35         24.0890    -0.8180     8.9620 hc         1 0UV       0.041533
     77 H36         25.5680     0.1600     8.9240 hc         1 0UV       0.041533
     78 H37         24.0720     0.8220     9.6160 hc         1 0UV       0.041533
     79 H38         24.0340    -1.0670     6.6940 ho         1 0UV       0.438000
     80 H39         27.1360     8.0460     7.5590 ha         1 0UV       0.118000
     81 H40         26.3370     9.9340     8.9960 ha         1 0UV       0.130000
     82 H42         20.7630    12.6850     7.5230 ha         1 0UV       0.141500
     83 H43         20.3640    14.8510     6.3990 ha         1 0UV       0.136500
     84 H44         21.5150    16.9600     9.9730 ha         1 0UV       0.136500
     85 H45         21.9200    14.8020    11.1340 ha         1 0UV       0.141500
     86 H22         23.9740    11.1860     9.8700 hn         1 0UV       0.408000
@<TRIPOS>BOND
     1     1     2 1   
     2     1    43 1   
     3     1    44 1   
     4     1    45 1   
     5     2     3 1   
     6     2     4 1   
     7     2    46 1   
     8     3    47 1   
     9     3    48 1   
    10     3    49 1   
    11     4     5 1   
    12     4    50 1   
    13     5     6 2   
    14     5     7 1   
    15     7     8 1   
    16     7    10 1   
    17     7    51 1   
    18     8     9 1   
    19     8    52 1   
    20     8    53 1   
    21     9    12 1   
    22     9    54 1   
    23     9    55 1   
    24    10    11 1   
    25    10    56 1   
    26    10    57 1   
    27    11    12 1   
    28    11    58 1   
    29    11    59 1   
    30    12    13 1   
    31    12    60 1   
    32    13    14 1   
    33    13    32 1   
    34    14    15 ar  
    35    14    30 ar  
    36    15    16 ar  
    37    15    61 1   
    38    16    17 1   
    39    16    28 ar  
    40    17    18 1   
    41    17    62 1   
    42    17    63 1   
    43    18    19 1   
    44    18    21 1   
    45    19    20 1   
    46    19    64 1   
    47    19    65 1   
    48    20    23 1   
    49    20    66 1   
    50    20    67 1   
    51    21    22 1   
    52    21    68 1   
    53    21    69 1   
    54    22    23 1   
    55    22    70 1   
    56    22    71 1   
    57    23    24 1   
    58    23    72 1   
    59    24    25 1   
    60    24    26 1   
    61    24    27 1   
    62    25    73 1   
    63    25    74 1   
    64    25    75 1   
    65    26    76 1   
    66    26    77 1   
    67    26    78 1   
    68    27    79 1   
    69    28    29 ar  
    70    28    80 1   
    71    29    30 ar  
    72    29    81 1   
    73    30    31 1   
    74    31    32 1   
    75    31    86 1   
    76    32    33 2   
    77    33    34 1   
    78    34    35 2   
    79    34    36 1   
    80    36    37 ar  
    81    36    42 ar  
    82    37    38 ar  
    83    37    82 1   
    84    38    39 ar  
    85    38    83 1   
    86    39    40 1   
    87    39    41 ar  
    88    41    42 ar  
    89    41    84 1   
    90    42    85 1   
@<TRIPOS>SUBSTRUCTURE
     1 0UV         1 TEMP              0 ****  ****    0 ROOT
