@<TRIPOS>MOLECULE
0UW
   19    20     1     0     0
SMALL
No Charge or Current Charge


@<TRIPOS>ATOM
      1 N3          18.9060     5.5340     2.4270 ns         1 0UW      -0.537900
      2 C4          18.8120     5.2350     1.0900 cc         1 0UW       0.418500
      3 C8          19.9090     5.4270     0.1290 ca         1 0UW      -0.117900
      4 C10         22.1980     6.1180    -0.4050 ca         1 0UW      -0.112500
      5 C13         19.7210     5.0910    -1.2320 ca         1 0UW      -0.081000
      6 C2          17.7680     5.2700     3.0980 c          1 0UW       0.564000
      7 N5          17.5920     4.7620     0.8440 nd         1 0UW      -0.483300
      8 N6          16.9960     4.8000     2.0830 ns         1 0UW      -0.371400
      9 C9          21.1630     5.9440     0.5310 ca         1 0UW      -0.081000
     10 C11         21.9970     5.7810    -1.7530 ca         1 0UW      -0.092000
     11 C12         20.7580     5.2670    -2.1650 ca         1 0UW      -0.112500
     12 H1          23.1580     6.5170    -0.0840 ha         1 0UW       0.119000
     13 H2          18.7680     4.6920    -1.5720 ha         1 0UW       0.122000
     14 H3          21.3500     6.2150     1.5660 ha         1 0UW       0.122000
     15 H4          22.7990     5.9170    -2.4750 ha         1 0UW       0.118000
     16 H5          20.5990     5.0050    -3.2090 ha         1 0UW       0.119000
     17 H6          19.7200     5.9090     2.8910 hn         1 0UW       0.476000
     18 H7          16.0360     4.5030     2.2700 hn         1 0UW       0.491000
     19 O1          17.5130     5.4150     4.2780 o          1 0UW      -0.559000
@<TRIPOS>BOND
     1     1     2 1   
     2     1     6 1   
     3     1    17 1   
     4     2     3 1   
     5     2     7 2   
     6     3     5 ar  
     7     3     9 ar  
     8     4     9 ar  
     9     4    10 ar  
    10     4    12 1   
    11     5    11 ar  
    12     5    13 1   
    13     6     8 1   
    14     6    19 2   
    15     7     8 1   
    16     8    18 1   
    17     9    14 1   
    18    10    11 ar  
    19    10    15 1   
    20    11    16 1   
@<TRIPOS>SUBSTRUCTURE
     1 0UW         1 TEMP              0 ****  ****    0 ROOT
