@<TRIPOS>MOLECULE
0UW
   19    20     1     0     0
SMALL
abcg2


@<TRIPOS>ATOM
      1 N3          18.9090     5.6720     2.4320 ns         1 0UW      -0.537900
      2 C4          18.8730     5.2410     1.1350 cc         1 0UW       0.418500
      3 C8          19.9420     5.4290     0.1580 ca         1 0UW      -0.117900
      4 C10         22.2060     6.0360    -0.4080 ca         1 0UW      -0.112500
      5 C13         19.6940     5.1550    -1.1880 ca         1 0UW      -0.081000
      6 C2          17.7300     5.3210     3.0530 c          1 0UW       0.564000
      7 N5          17.7580     4.6370     0.8880 nd         1 0UW      -0.483300
      8 N6          17.0650     4.6880     2.0490 ns         1 0UW      -0.371400
      9 C9          21.2070     5.8700     0.5400 ca         1 0UW      -0.081000
     10 C11         21.9540     5.7620    -1.7440 ca         1 0UW      -0.092000
     11 C12         20.6940     5.3200    -2.1310 ca         1 0UW      -0.112500
     12 H1          23.1850     6.3770    -0.0980 ha         1 0UW       0.119000
     13 H2          18.7130     4.8170    -1.4980 ha         1 0UW       0.122000
     14 H3          21.4360     6.0820     1.5770 ha         1 0UW       0.122000
     15 H4          22.7350     5.8920    -2.4820 ha         1 0UW       0.118000
     16 H5          20.4890     5.1080    -3.1710 ha         1 0UW       0.119000
     17 H6          19.6430     6.1920     2.8870 hn         1 0UW       0.476000
     18 H7          16.1490     4.2740     2.1130 hn         1 0UW       0.491000
     19 O1          17.3830     5.5280     4.2010 o          1 0UW      -0.559000
@<TRIPOS>BOND
     1     1     2 1   
     2     1     6 1   
     3     1    17 1   
     4     2     3 1   
     5     2     7 2   
     6     3     5 ar  
     7     3     9 ar  
     8     4     9 ar  
     9     4    10 ar  
    10     4    12 1   
    11     5    11 ar  
    12     5    13 1   
    13     6     8 1   
    14     6    19 2   
    15     7     8 1   
    16     8    18 1   
    17     9    14 1   
    18    10    11 ar  
    19    10    15 1   
    20    11    16 1   
@<TRIPOS>SUBSTRUCTURE
     1 0UW         1 TEMP              0 ****  ****    0 ROOT
