@<TRIPOS>MOLECULE
0UX
   62    67     1     0     0
SMALL
No Charge or Current Charge


@<TRIPOS>ATOM
      1 N1           4.2010    -3.5970    -0.3560 ns         1 0UX      -0.453400
      2 C1           4.9460    -2.4930    -0.5430 c          1 0UX       0.593600
      3 O1           6.1100    -2.5530    -0.9080 o          1 0UX      -0.554000
      4 C2           4.2200    -1.2270    -0.2690 ca         1 0UX      -0.229600
      5 C3           2.8590    -1.2940     0.1470 ca         1 0UX       0.219400
      6 N2           2.1740    -2.5190     0.3060 nc         1 0UX      -0.699100
      7 C4           2.9230    -3.5570     0.0360 cd         1 0UX       0.704800
      8 N3           2.3170    -4.7220     0.1820 nv         1 0UX      -1.036200
      9 C5           4.8780     0.0130    -0.4270 ca         1 0UX      -0.028000
     10 C6           4.1420     1.1660    -0.1620 ca         1 0UX      -0.117200
     11 C7           2.8370     1.1410     0.2380 ca         1 0UX       0.161400
     12 C8           2.1550    -0.0800     0.4110 ca         1 0UX      -0.060300
     13 C9           0.6860    -0.0740     0.8530 c3         1 0UX      -0.011100
     14 C10         -0.2790    -0.1030    -0.3500 c3         1 0UX       0.164800
     15 N4          -1.6840    -0.0390     0.1000 n7         1 0UX      -0.866400
     16 C11         -2.6890    -0.0860    -0.9810 c3         1 0UX       0.171800
     17 N5           4.5080     2.4750    -0.2370 na         1 0UX      -0.358600
     18 C12          3.3980     3.2020     0.1230 cc         1 0UX       0.688700
     19 N6           3.3400     4.5470     0.1770 nu         1 0UX      -0.915400
     20 C13          4.4490     5.4910    -0.0210 c3         1 0UX       0.220100
     21 N7           2.3500     2.4410     0.4220 nd         1 0UX      -0.671100
     22 C14         -4.1680     0.0240    -0.4790 c6         1 0UX      -0.045000
     23 C15         -4.5330    -1.1590     0.4820 c6         1 0UX      -0.062067
     24 C16         -6.0170    -1.0530     0.9410 c6         1 0UX      -0.059033
     25 C17         -6.9490    -1.1110    -0.3030 c6         1 0UX      -0.067400
     26 C18         -6.6170     0.0710    -1.2580 c6         1 0UX      -0.059033
     27 C19         -5.1320    -0.0340    -1.7120 c6         1 0UX      -0.062067
     28 C20         -6.8330     1.4180    -0.5120 c6         1 0UX      -0.067400
     29 C21         -4.4170     1.3760     0.2740 c6         1 0UX      -0.062067
     30 C22         -6.2320     0.2970     1.6860 c6         1 0UX      -0.067400
     31 C23         -5.9020     1.4810     0.7320 c6         1 0UX      -0.059033
     32 H1           4.6460    -4.4780    -0.5500 hn         1 0UX       0.322500
     33 H2           1.4220    -4.6520     0.6500 hn         1 0UX       0.487500
     34 H3           2.8860    -5.5150     0.4510 hn         1 0UX       0.487500
     35 H4           5.9170     0.0740    -0.7460 ha         1 0UX       0.135000
     36 H5           0.4700    -0.9250     1.5100 hc         1 0UX       0.060700
     37 H6           0.4750     0.8170     1.4560 hc         1 0UX       0.060700
     38 H7          -0.0510     0.7480    -1.0070 h1         1 0UX       0.033700
     39 H8          -0.1020    -1.0230    -0.9240 h1         1 0UX       0.033700
     40 H9          -1.8160     0.8390     0.6110 hn         1 0UX       0.404000
     41 H11         -2.5090     0.7360    -1.6880 h1         1 0UX       0.026200
     42 H12         -2.5850    -1.0240    -1.5430 h1         1 0UX       0.026200
     43 H13          5.4020     2.8600    -0.5040 hn         1 0UX       0.357000
     44 H14          2.4440     4.8920     0.5170 hn         1 0UX       0.524000
     45 H15          5.2600     5.2880     0.6920 h1         1 0UX       0.039700
     46 H16          4.8490     5.4060    -1.0400 h1         1 0UX       0.039700
     47 H17          4.1060     6.5230     0.1310 h1         1 0UX       0.039700
     48 H19         -4.3650    -2.1220    -0.0200 hc         1 0UX       0.041533
     49 H20         -3.8770    -1.1550     1.3640 hc         1 0UX       0.041533
     50 H21         -6.2530    -1.8870     1.6160 hc         1 0UX       0.045700
     51 H22         -6.8240    -2.0690    -0.8260 hc         1 0UX       0.037367
     52 H23         -8.0010    -1.0620     0.0090 hc         1 0UX       0.037367
     53 H24         -7.2740     0.0290    -2.1380 hc         1 0UX       0.045700
     54 H25         -4.9000     0.7800    -2.4130 hc         1 0UX       0.041533
     55 H26         -4.9800    -0.9690    -2.2690 hc         1 0UX       0.041533
     56 H27         -6.6260     2.2620    -1.1840 hc         1 0UX       0.037367
     57 H28         -7.8840     1.5170    -0.2050 hc         1 0UX       0.037367
     58 H29         -3.7600     1.4570     1.1500 hc         1 0UX       0.041533
     59 H30         -4.1670     2.2250    -0.3780 hc         1 0UX       0.041533
     60 H31         -7.2700     0.3730     2.0390 hc         1 0UX       0.037367
     61 H32         -5.5960     0.3420     2.5810 hc         1 0UX       0.037367
     62 H33         -6.0570     2.4320     1.2600 hc         1 0UX       0.045700
@<TRIPOS>BOND
     1     1     2 1   
     2     1     7 1   
     3     1    32 1   
     4     2     3 2   
     5     2     4 1   
     6     4     5 ar  
     7     4     9 ar  
     8     5     6 1   
     9     5    12 ar  
    10     6     7 2   
    11     7     8 1   
    12     8    33 1   
    13     8    34 1   
    14     9    10 ar  
    15     9    35 1   
    16    10    11 ar  
    17    10    17 1   
    18    11    12 ar  
    19    11    21 1   
    20    12    13 1   
    21    13    14 1   
    22    13    36 1   
    23    13    37 1   
    24    14    15 1   
    25    14    38 1   
    26    14    39 1   
    27    15    16 1   
    28    15    40 1   
    29    16    22 1   
    30    16    41 1   
    31    16    42 1   
    32    17    18 1   
    33    17    43 1   
    34    18    19 1   
    35    18    21 2   
    36    19    20 1   
    37    19    44 1   
    38    20    45 1   
    39    20    46 1   
    40    20    47 1   
    41    22    23 1   
    42    22    27 1   
    43    22    29 1   
    44    23    24 1   
    45    23    48 1   
    46    23    49 1   
    47    24    25 1   
    48    24    30 1   
    49    24    50 1   
    50    25    26 1   
    51    25    51 1   
    52    25    52 1   
    53    26    27 1   
    54    26    28 1   
    55    26    53 1   
    56    27    54 1   
    57    27    55 1   
    58    28    31 1   
    59    28    56 1   
    60    28    57 1   
    61    29    31 1   
    62    29    58 1   
    63    29    59 1   
    64    30    31 1   
    65    30    60 1   
    66    30    61 1   
    67    31    62 1   
@<TRIPOS>SUBSTRUCTURE
     1 0UX         1 TEMP              0 ****  ****    0 ROOT
