@<TRIPOS>MOLECULE
0UX
   62    67     1     0     0
SMALL
bcc


@<TRIPOS>ATOM
      1 N1           3.7760    -3.4910    -0.5020 ns         1 0UX      -0.520400
      2 C1           4.6350    -2.4230    -0.6370 c          1 0UX       0.736100
      3 O1           5.7880    -2.6020    -1.0020 o          1 0UX      -0.629500
      4 C2           4.0380    -1.1420    -0.3190 ca         1 0UX      -0.229600
      5 C3           2.6840    -1.1020     0.0940 ca         1 0UX       0.219400
      6 N2           1.9300    -2.2440     0.2090 nc         1 0UX      -0.699100
      7 C4           2.4760    -3.3750    -0.0890 cd         1 0UX       0.704800
      8 N3           1.7600    -4.5210    -0.0540 nv         1 0UX      -0.925800
      9 C5           4.8140     0.0220    -0.4280 ca         1 0UX      -0.046000
     10 C6           4.1970     1.2010    -0.1200 ca         1 0UX      -0.117200
     11 C7           2.8420     1.2730     0.2910 ca         1 0UX       0.161400
     12 C8           2.0680     0.1250     0.4080 ca         1 0UX      -0.060300
     13 C9           0.6330     0.1980     0.8340 c3         1 0UX      -0.011100
     14 C10         -0.3350     0.0990    -0.3420 c3         1 0UX       0.164800
     15 N4          -1.7080     0.1860     0.1160 n7         1 0UX      -0.811200
     16 C11         -2.6760    -0.0150    -0.9430 c3         1 0UX       0.171800
     17 N5           4.6330     2.5100    -0.1090 na         1 0UX      -0.308300
     18 C12          3.5790     3.2760     0.2850 cc         1 0UX       0.688700
     19 N6           3.6690     4.6040     0.3990 nu         1 0UX      -0.860200
     20 C13          4.8750     5.3540     0.1500 c3         1 0UX       0.220100
     21 N7           2.4900     2.5720     0.5320 nd         1 0UX      -0.671100
     22 C14         -4.1250    -0.0010    -0.4560 c6         1 0UX      -0.045000
     23 C15         -4.3550    -1.0580     0.6320 c6         1 0UX      -0.062067
     24 C16         -5.8180    -1.0580     1.0790 c6         1 0UX      -0.059033
     25 C17         -6.7150    -1.3810    -0.1180 c6         1 0UX      -0.067400
     26 C18         -6.5130    -0.3250    -1.2080 c6         1 0UX      -0.059033
     27 C19         -5.0460    -0.3200    -1.6430 c6         1 0UX      -0.062067
     28 C20         -6.8830     1.0540    -0.6560 c6         1 0UX      -0.067400
     29 C21         -4.5220     1.3760     0.0970 c6         1 0UX      -0.062067
     30 C22         -6.1850     0.3210     1.6300 c6         1 0UX      -0.067400
     31 C23         -5.9870     1.3760     0.5400 c6         1 0UX      -0.059033
     32 H1           4.1460    -4.4040    -0.7310 hn         1 0UX       0.322500
     33 H2           0.8790    -4.4760     0.4310 hn         1 0UX       0.432300
     34 H3           2.2400    -5.4030     0.0180 hn         1 0UX       0.432300
     35 H4           5.8480    -0.0290    -0.7420 ha         1 0UX       0.153000
     36 H5           0.4070    -0.6050     1.5380 hc         1 0UX       0.060700
     37 H6           0.4650     1.1430     1.3570 hc         1 0UX       0.060700
     38 H7          -0.0840     0.8700    -1.0890 h1         1 0UX       0.033700
     39 H8          -0.1960    -0.8670    -0.8330 h1         1 0UX       0.033700
     40 H9          -1.8490     1.1000     0.5290 hn         1 0UX       0.348800
     41 H11         -2.5720     0.7260    -1.7560 h1         1 0UX       0.026200
     42 H12         -2.4730    -0.9930    -1.3940 h1         1 0UX       0.026200
     43 H13          5.5540     2.8300    -0.3590 hn         1 0UX       0.306700
     44 H14          2.8450     5.0850     0.7130 hn         1 0UX       0.468800
     45 H15          5.6830     5.0760     0.8310 h1         1 0UX       0.039700
     46 H16          5.2280     5.2320    -0.8760 h1         1 0UX       0.039700
     47 H17          4.6590     6.4070     0.3030 h1         1 0UX       0.039700
     48 H19         -4.0850    -2.0460     0.2410 hc         1 0UX       0.041533
     49 H20         -3.6950    -0.8680     1.4820 hc         1 0UX       0.041533
     50 H21         -5.9590    -1.8150     1.8570 hc         1 0UX       0.045700
     51 H22         -6.4730    -2.3750    -0.5090 hc         1 0UX       0.037367
     52 H23         -7.7650    -1.4090     0.1920 hc         1 0UX       0.037367
     53 H24         -7.1460    -0.5600    -2.0700 hc         1 0UX       0.045700
     54 H25         -4.8930     0.4180    -2.4400 hc         1 0UX       0.041533
     55 H26         -4.7770    -1.2970    -2.0620 hc         1 0UX       0.041533
     56 H27         -6.7600     1.8150    -1.4330 hc         1 0UX       0.037367
     57 H28         -7.9360     1.0730    -0.3570 hc         1 0UX       0.037367
     58 H29         -3.8910     1.6540     0.9490 hc         1 0UX       0.041533
     59 H30         -4.3640     2.1410    -0.6730 hc         1 0UX       0.041533
     60 H31         -7.2250     0.3250     1.9740 hc         1 0UX       0.037367
     61 H32         -5.5660     0.5610     2.5010 hc         1 0UX       0.037367
     62 H33         -6.2440     2.3650     0.9340 hc         1 0UX       0.045700
@<TRIPOS>BOND
     1     1     2 1   
     2     1     7 1   
     3     1    32 1   
     4     2     3 2   
     5     2     4 1   
     6     4     5 ar  
     7     4     9 ar  
     8     5     6 1   
     9     5    12 ar  
    10     6     7 2   
    11     7     8 1   
    12     8    33 1   
    13     8    34 1   
    14     9    10 ar  
    15     9    35 1   
    16    10    11 ar  
    17    10    17 1   
    18    11    12 ar  
    19    11    21 1   
    20    12    13 1   
    21    13    14 1   
    22    13    36 1   
    23    13    37 1   
    24    14    15 1   
    25    14    38 1   
    26    14    39 1   
    27    15    16 1   
    28    15    40 1   
    29    16    22 1   
    30    16    41 1   
    31    16    42 1   
    32    17    18 1   
    33    17    43 1   
    34    18    19 1   
    35    18    21 2   
    36    19    20 1   
    37    19    44 1   
    38    20    45 1   
    39    20    46 1   
    40    20    47 1   
    41    22    23 1   
    42    22    27 1   
    43    22    29 1   
    44    23    24 1   
    45    23    48 1   
    46    23    49 1   
    47    24    25 1   
    48    24    30 1   
    49    24    50 1   
    50    25    26 1   
    51    25    51 1   
    52    25    52 1   
    53    26    27 1   
    54    26    28 1   
    55    26    53 1   
    56    27    54 1   
    57    27    55 1   
    58    28    31 1   
    59    28    56 1   
    60    28    57 1   
    61    29    31 1   
    62    29    58 1   
    63    29    59 1   
    64    30    31 1   
    65    30    60 1   
    66    30    61 1   
    67    31    62 1   
@<TRIPOS>SUBSTRUCTURE
     1 0UX         1 TEMP              0 ****  ****    0 ROOT
