@<TRIPOS>MOLECULE
0V0
   46    48     1     0     0
SMALL
No Charge or Current Charge


@<TRIPOS>ATOM
      1 C1          -5.7480     3.8870     0.0790 c3         1 0V0      -0.102100
      2 C2          -4.6590     2.8020     0.0960 c3         1 0V0       0.162600
      3 O3          -5.3240     1.5270     0.1230 os         1 0V0      -0.402100
      4 C4          -4.6320     0.3330     0.1530 ca         1 0V0       0.210100
      5 C5          -3.2250     0.2790     0.1260 ca         1 0V0      -0.232000
      6 C6          -2.5620    -0.9550     0.1470 ca         1 0V0       0.238100
      7 O7          -1.1840    -0.9400     0.1200 os         1 0V0      -0.318100
      8 C8          -0.4050    -2.1460     0.1380 c3         1 0V0       0.259700
      9 C9           1.0150    -1.7800     0.1000 c1         1 0V0      -0.180100
     10 C10          2.1810    -1.4390     0.0700 cg         1 0V0      -0.026000
     11 C11          3.5530    -1.0250     0.0340 ca         1 0V0      -0.003000
     12 C12          4.5820    -1.9870     0.0630 ca         1 0V0      -0.075000
     13 C13          5.9290    -1.5840     0.0270 ca         1 0V0      -0.098000
     14 C14          6.2480    -0.2170    -0.0370 ca         1 0V0       0.002000
     15 C15          7.5800     0.2260    -0.0730 ca         1 0V0      -0.148000
     16 C16          7.8400     1.6050    -0.1370 ca         1 0V0       0.338900
     17 N17          6.8620     2.5410    -0.1660 nb         1 0V0      -0.657000
     18 C18          5.5770     2.1110    -0.1300 ca         1 0V0       0.367900
     19 C19          5.2230     0.7490    -0.0660 ca         1 0V0      -0.108000
     20 C20          3.8750     0.3450    -0.0310 ca         1 0V0      -0.043000
     21 C21         -3.3090    -2.1490     0.1940 ca         1 0V0      -0.231000
     22 C22         -4.7120    -2.1000     0.2200 ca         1 0V0       0.007000
     23 C23         -5.3760    -0.8610     0.1980 ca         1 0V0      -0.278300
     24 C24         -6.8850    -0.8220     0.2380 c3         1 0V0       0.193900
     25 N25         -7.3220    -0.5540    -1.1590 nz         1 0V0      -0.975000
     26 HN25        -8.3450    -0.5020    -1.2610 hn         1 0V0       0.507667
     27 HN2A        -6.9470     0.3410    -1.5040 hn         1 0V0       0.507667
     28 HN2B        -6.9970    -1.2740    -1.8190 hn         1 0V0       0.507667
     29 H1          -5.2900     4.8830     0.0610 hc         1 0V0       0.056033
     30 H1A         -6.3820     3.7830    -0.8090 hc         1 0V0       0.056033
     31 H1B         -6.3790     3.8130     0.9730 hc         1 0V0       0.056033
     32 H2          -4.0330     2.8990    -0.8010 h1         1 0V0       0.056200
     33 H2A         -4.0270     2.9330     0.9840 h1         1 0V0       0.056200
     34 H5          -2.6260     1.1820     0.0880 ha         1 0V0       0.156000
     35 H8          -0.6010    -2.7240     1.0500 h1         1 0V0       0.059700
     36 H8A         -0.6360    -2.7730    -0.7330 h1         1 0V0       0.059700
     37 H12          4.3380    -3.0470     0.1120 ha         1 0V0       0.122000
     38 H13          6.7180    -2.3330     0.0500 ha         1 0V0       0.127000
     39 H15          8.4060    -0.4790    -0.0530 ha         1 0V0       0.130000
     40 H16          8.8650     1.9740    -0.1670 h4         1 0V0       0.027100
     41 H18          4.8100     2.8850    -0.1540 h4         1 0V0       0.020100
     42 H20          3.0810     1.0890    -0.0530 ha         1 0V0       0.123000
     43 H21         -2.8240    -3.1200     0.2120 ha         1 0V0       0.145000
     44 H22         -5.2820    -3.0280     0.2590 ha         1 0V0       0.122000
     45 H24         -7.3040    -1.7750     0.5820 hx         1 0V0       0.099700
     46 H24A        -7.2410    -0.0210     0.8960 hx         1 0V0       0.099700
@<TRIPOS>BOND
     1     1     2 1   
     2     1    29 1   
     3     1    30 1   
     4     1    31 1   
     5     2     3 1   
     6     2    32 1   
     7     2    33 1   
     8     3     4 1   
     9     4     5 ar  
    10     4    23 ar  
    11     5     6 ar  
    12     5    34 1   
    13     6     7 1   
    14     6    21 ar  
    15     7     8 1   
    16     8     9 1   
    17     8    35 1   
    18     8    36 1   
    19     9    10 3   
    20    10    11 1   
    21    11    12 ar  
    22    11    20 ar  
    23    12    13 ar  
    24    12    37 1   
    25    13    14 ar  
    26    13    38 1   
    27    14    15 ar  
    28    14    19 ar  
    29    15    16 ar  
    30    15    39 1   
    31    16    17 ar  
    32    16    40 1   
    33    17    18 ar  
    34    18    19 ar  
    35    18    41 1   
    36    19    20 ar  
    37    20    42 1   
    38    21    22 ar  
    39    21    43 1   
    40    22    23 ar  
    41    22    44 1   
    42    23    24 1   
    43    24    25 1   
    44    24    45 1   
    45    24    46 1   
    46    25    26 1   
    47    25    27 1   
    48    25    28 1   
@<TRIPOS>SUBSTRUCTURE
     1 0V0         1 TEMP              0 ****  ****    0 ROOT
