@<TRIPOS>MOLECULE
0V0
   46    48     1     0     0
SMALL
abcg2


@<TRIPOS>ATOM
      1 C1          -5.8450     3.7440     0.0040 c3         1 0V0      -0.102100
      2 C2          -4.7560     2.7000    -0.0060 c3         1 0V0       0.162600
      3 O3          -5.3730     1.4160     0.0730 os         1 0V0      -0.402100
      4 C4          -4.6090     0.3120     0.0880 ca         1 0V0       0.210100
      5 C5          -3.2270     0.3210     0.0080 ca         1 0V0      -0.232000
      6 C6          -2.5250    -0.8880     0.0260 ca         1 0V0       0.238100
      7 O7          -1.1850    -0.7700    -0.0470 os         1 0V0      -0.318100
      8 C8          -0.4070    -1.9500     0.0390 c3         1 0V0       0.259700
      9 C9           0.9940    -1.5630     0.0210 c1         1 0V0      -0.180100
     10 C10          2.1610    -1.2680     0.0110 cg         1 0V0      -0.026000
     11 C11          3.5410    -0.9140     0.0090 ca         1 0V0      -0.003000
     12 C12          4.5280    -1.9350     0.0790 ca         1 0V0      -0.075000
     13 C13          5.8570    -1.6250     0.0850 ca         1 0V0      -0.098000
     14 C14          6.2760    -0.2760     0.0200 ca         1 0V0       0.002000
     15 C15          7.6280     0.1240     0.0220 ca         1 0V0      -0.148000
     16 C16          7.9300     1.4560    -0.0430 ca         1 0V0       0.338900
     17 N17          6.9970     2.4330    -0.1130 nb         1 0V0      -0.657000
     18 C18          5.7400     2.0830    -0.1170 ca         1 0V0       0.367900
     19 C19          5.2950     0.7400    -0.0510 ca         1 0V0      -0.108000
     20 C20          3.9280     0.4040    -0.0560 ca         1 0V0      -0.043000
     21 C21         -3.2010    -2.0990     0.1110 ca         1 0V0      -0.231000
     22 C22         -4.5880    -2.0810     0.1870 ca         1 0V0       0.007000
     23 C23         -5.3110    -0.9020     0.1830 ca         1 0V0      -0.278300
     24 C24         -6.7990    -0.9110     0.3150 c3         1 0V0       0.193900
     25 N25         -7.4680    -0.4380    -0.9340 nz         1 0V0      -0.975000
     26 HN25        -8.4830    -0.4770    -0.8500 hn         1 0V0       0.507667
     27 HN2A        -7.2210     0.5290    -1.1440 hn         1 0V0       0.507667
     28 HN2B        -7.2100    -1.0060    -1.7400 hn         1 0V0       0.507667
     29 H1          -5.3920     4.7330    -0.0430 hc         1 0V0       0.056033
     30 H1A         -6.5080     3.6380    -0.8550 hc         1 0V0       0.056033
     31 H1B         -6.4390     3.6890     0.9160 hc         1 0V0       0.056033
     32 H2          -4.1610     2.7690    -0.9220 h1         1 0V0       0.056200
     33 H2A         -4.0800     2.8360     0.8430 h1         1 0V0       0.056200
     34 H5          -2.6660     1.2430    -0.0640 ha         1 0V0       0.156000
     35 H8          -0.6260    -2.4980     0.9620 h1         1 0V0       0.059700
     36 H8A         -0.6160    -2.6240    -0.7990 h1         1 0V0       0.059700
     37 H12          4.2120    -2.9690     0.1300 ha         1 0V0       0.122000
     38 H13          6.6000    -2.4100     0.1390 ha         1 0V0       0.127000
     39 H15          8.4170    -0.6150     0.0760 ha         1 0V0       0.130000
     40 H16          8.9620     1.7840    -0.0430 h4         1 0V0       0.027100
     41 H18          5.0010     2.8770    -0.1730 h4         1 0V0       0.020100
     42 H20          3.1850     1.1900    -0.1080 ha         1 0V0       0.123000
     43 H21         -2.6840    -3.0480     0.1210 ha         1 0V0       0.145000
     44 H22         -5.1190    -3.0230     0.2620 ha         1 0V0       0.122000
     45 H24         -7.1670    -1.9160     0.5030 hx         1 0V0       0.099700
     46 H24A        -7.1570    -0.2640     1.1140 hx         1 0V0       0.099700
@<TRIPOS>BOND
     1     1     2 1   
     2     1    29 1   
     3     1    30 1   
     4     1    31 1   
     5     2     3 1   
     6     2    32 1   
     7     2    33 1   
     8     3     4 1   
     9     4     5 ar  
    10     4    23 ar  
    11     5     6 ar  
    12     5    34 1   
    13     6     7 1   
    14     6    21 ar  
    15     7     8 1   
    16     8     9 1   
    17     8    35 1   
    18     8    36 1   
    19     9    10 3   
    20    10    11 1   
    21    11    12 ar  
    22    11    20 ar  
    23    12    13 ar  
    24    12    37 1   
    25    13    14 ar  
    26    13    38 1   
    27    14    15 ar  
    28    14    19 ar  
    29    15    16 ar  
    30    15    39 1   
    31    16    17 ar  
    32    16    40 1   
    33    17    18 ar  
    34    18    19 ar  
    35    18    41 1   
    36    19    20 ar  
    37    20    42 1   
    38    21    22 ar  
    39    21    43 1   
    40    22    23 ar  
    41    22    44 1   
    42    23    24 1   
    43    24    25 1   
    44    24    45 1   
    45    24    46 1   
    46    25    26 1   
    47    25    27 1   
    48    25    28 1   
@<TRIPOS>SUBSTRUCTURE
     1 0V0         1 TEMP              0 ****  ****    0 ROOT
