@<TRIPOS>MOLECULE
0V1
   17    16     1     0     0
SMALL
No Charge or Current Charge


@<TRIPOS>ATOM
      1 C1          29.8970     7.1570     9.8100 c3         1 0V1       0.120600
      2 C2          31.0170     7.8720    10.6150 c3         1 0V1       0.168300
      3 C3          31.8840     8.7990     9.7280 c3         1 0V1      -0.071400
      4 C4          32.9050     9.6560    10.5080 c3         1 0V1       0.166600
      5 O4          32.2250    10.6220    11.3220 oh         1 0V1      -0.675000
      6 O2          31.8380     6.8640    11.2230 oh         1 0V1      -0.674000
      7 O1          29.2080     6.2130    10.6510 oh         1 0V1      -0.678000
      8 H1          30.3400     6.6460     8.9440 h1         1 0V1       0.033700
      9 H2          29.1960     7.9120     9.4280 h1         1 0V1       0.033700
     10 H3          30.5310     8.4820    11.3900 h1         1 0V1       0.063700
     11 H4          31.2300     9.4670     9.1550 hc         1 0V1       0.052700
     12 H5          32.4250     8.1890     8.9940 hc         1 0V1       0.052700
     13 H6          33.5400     9.0060    11.1250 h1         1 0V1       0.029700
     14 H7          33.5580    10.1670     9.7870 h1         1 0V1       0.029700
     15 H8          32.9180    11.1360    11.7920 ho         1 0V1       0.441000
     16 H9          31.2050     6.1370    11.4280 ho         1 0V1       0.457000
     17 H10         28.4710     5.8350    10.1190 ho         1 0V1       0.448000
@<TRIPOS>BOND
     1     1     2 1   
     2     1     7 1   
     3     1     8 1   
     4     1     9 1   
     5     2     3 1   
     6     2     6 1   
     7     2    10 1   
     8     3     4 1   
     9     3    11 1   
    10     3    12 1   
    11     4     5 1   
    12     4    13 1   
    13     4    14 1   
    14     5    15 1   
    15     6    16 1   
    16     7    17 1   
@<TRIPOS>SUBSTRUCTURE
     1 0V1         1 TEMP              0 ****  ****    0 ROOT
