@<TRIPOS>MOLECULE
0V1
   17    16     1     0     0
SMALL
abcg2


@<TRIPOS>ATOM
      1 C1          29.9070     7.2100     9.7720 c3         1 0V1       0.120600
      2 C2          30.9840     7.9090    10.5810 c3         1 0V1       0.168300
      3 C3          31.8390     8.8140     9.7090 c3         1 0V1      -0.071400
      4 C4          32.8880     9.5980    10.4740 c3         1 0V1       0.166600
      5 O4          32.2300    10.5140    11.3600 oh         1 0V1      -0.675000
      6 O2          31.8360     6.9370    11.2000 oh         1 0V1      -0.674000
      7 O1          29.1780     6.3640    10.6690 oh         1 0V1      -0.678000
      8 H1          30.3710     6.6160     8.9790 h1         1 0V1       0.033700
      9 H2          29.2450     7.9540     9.3160 h1         1 0V1       0.033700
     10 H3          30.4960     8.5060    11.3610 h1         1 0V1       0.063700
     11 H4          31.1860     9.5130     9.1790 hc         1 0V1       0.052700
     12 H5          32.3450     8.2040     8.9560 hc         1 0V1       0.052700
     13 H6          33.5280     8.9170    11.0420 h1         1 0V1       0.029700
     14 H7          33.5180    10.1470     9.7670 h1         1 0V1       0.029700
     15 H8          32.9020    10.9560    11.8920 ho         1 0V1       0.441000
     16 H9          31.2530     6.2820    11.6080 ho         1 0V1       0.457000
     17 H10         28.6830     5.7180    10.1520 ho         1 0V1       0.448000
@<TRIPOS>BOND
     1     1     2 1   
     2     1     7 1   
     3     1     8 1   
     4     1     9 1   
     5     2     3 1   
     6     2     6 1   
     7     2    10 1   
     8     3     4 1   
     9     3    11 1   
    10     3    12 1   
    11     4     5 1   
    12     4    13 1   
    13     4    14 1   
    14     5    15 1   
    15     6    16 1   
    16     7    17 1   
@<TRIPOS>SUBSTRUCTURE
     1 0V1         1 TEMP              0 ****  ****    0 ROOT
