@<TRIPOS>MOLECULE
0V2
   76    81     1     0     0
SMALL
No Charge or Current Charge


@<TRIPOS>ATOM
      1 N1           5.8850     2.4670     0.3020 nc         1 0V2      -0.698100
      2 C1           6.6380     1.2730     0.3480 ca         1 0V2       0.220400
      3 C2           5.9560     0.0480     0.6220 ca         1 0V2      -0.060300
      4 C3           4.4410    -0.0030     0.8620 c3         1 0V2      -0.013100
      5 C4           3.6530    -0.1270    -0.4580 c3         1 0V2       0.163800
      6 N2           2.2010    -0.2190    -0.1990 n7         1 0V2      -0.863400
      7 C5           1.3560    -0.3060    -1.4040 c3         1 0V2       0.163800
      8 C6          -0.1630    -0.3980    -1.0690 c6         1 0V2      -0.061700
      9 C7          -0.9970    -0.6660    -2.3530 c6         1 0V2      -0.070900
     10 C8          -2.5110    -0.7740    -2.0400 c6         1 0V2      -0.068900
     11 C9          -3.0290     0.4970    -1.3170 c6         1 0V2       0.019400
     12 C24         -2.2030     0.7690    -0.0310 c6         1 0V2      -0.068900
     13 C25         -0.6890     0.8750    -0.3440 c6         1 0V2      -0.070900
     14 C26          6.7070    -1.1440     0.6530 ca         1 0V2       0.160400
     15 C27          8.0550    -1.1310     0.4360 ca         1 0V2      -0.117200
     16 N3           8.4850    -2.4200     0.5300 na         1 0V2      -0.357600
     17 C28          7.3670    -3.1740     0.8000 cc         1 0V2       0.688700
     18 N4           7.3600    -4.5110     0.9680 nu         1 0V2      -0.915400
     19 C29          8.4950    -5.4320     0.8080 c3         1 0V2       0.219100
     20 N5           6.2560    -2.4490     0.8860 nd         1 0V2      -0.671100
     21 C30          8.7700     0.0350     0.1720 ca         1 0V2      -0.027000
     22 C40          8.0450     1.2460     0.1280 ca         1 0V2      -0.229600
     23 C41          8.7470     2.5230    -0.1540 c          1 0V2       0.593600
     24 O1           9.9490     2.6180    -0.3490 o          1 0V2      -0.554000
     25 N6           7.9360     3.5960    -0.1750 ns         1 0V2      -0.452400
     26 C42          6.6180     3.5190     0.0420 cd         1 0V2       0.701800
     27 N7           5.9460     4.6560    -0.0150 nv         1 0V2      -1.030200
     28 H2           4.1870    -0.8500     1.5090 hc         1 0V2       0.062700
     29 H3           4.1010     0.8870     1.4030 hc         1 0V2       0.062700
     30 H4           3.8730     0.7480    -1.0860 h1         1 0V2       0.032700
     31 H5           4.0010    -1.0190    -0.9970 h1         1 0V2       0.032700
     32 H6           2.0310    -1.0570     0.3690 hn         1 0V2       0.403000
     33 H8           1.5180     0.5710    -2.0460 h1         1 0V2       0.026700
     34 H9           1.6340    -1.1950    -1.9860 h1         1 0V2       0.026700
     35 H10         -0.2820    -1.2600    -0.3980 hc         1 0V2       0.045700
     36 H11         -0.8300     0.1400    -3.0820 hc         1 0V2       0.044950
     37 H12         -0.6570    -1.5940    -2.8340 hc         1 0V2       0.044950
     38 H13         -3.0670    -0.9290    -2.9750 hc         1 0V2       0.045700
     39 H14         -2.6930    -1.6620    -1.4180 hc         1 0V2       0.045700
     40 H15         -2.9260     1.3580    -1.9930 hc         1 0V2       0.062700
     41 H17         -2.5440     1.6990     0.4470 hc         1 0V2       0.045700
     42 H18         -2.3690    -0.0350     0.7000 hc         1 0V2       0.045700
     43 H19         -0.1390     1.0350     0.5930 hc         1 0V2       0.044950
     44 H20         -0.5040     1.7620    -0.9660 hc         1 0V2       0.044950
     45 H21          9.4230    -2.7750     0.4280 hn         1 0V2       0.357000
     46 H22          6.4260    -4.8890     1.1170 hn         1 0V2       0.523000
     47 H23          8.9130    -5.3550    -0.2050 h1         1 0V2       0.039700
     48 H24          9.2860    -5.1960     1.5330 h1         1 0V2       0.039700
     49 H25          8.1730    -6.4690     0.9720 h1         1 0V2       0.039700
     50 H27          9.8460     0.0050     0.0040 ha         1 0V2       0.136000
     51 H28          6.3090     5.3780    -0.6240 hn         1 0V2       0.485000
     52 H29          4.9400     4.5400    -0.0270 hn         1 0V2       0.485000
     53 C10         -4.4700     0.3850    -1.0100 c1         1 0V2      -0.106100
     54 C11         -5.6500     0.2790    -0.7430 cg         1 0V2      -0.135000
     55 C12         -7.0410     0.1470    -0.4200 ca         1 0V2       0.040000
     56 C13         -7.5570     0.7490     0.7400 ca         1 0V2      -0.092500
     57 C14         -8.9210     0.6190     1.0560 ca         1 0V2      -0.102500
     58 C15         -9.8010    -0.1170     0.2230 cp         1 0V2      -0.029000
     59 C16         -9.2580    -0.7170    -0.9420 ca         1 0V2      -0.102500
     60 C17         -7.8950    -0.5870    -1.2600 ca         1 0V2      -0.092500
     61 H7          -6.9030     1.3170     1.3980 ha         1 0V2       0.119500
     62 H16         -9.2940     1.0830     1.9660 ha         1 0V2       0.116000
     63 H30         -9.9020    -1.2780    -1.6140 ha         1 0V2       0.116000
     64 H31         -7.5050    -1.0550    -2.1620 ha         1 0V2       0.119500
     65 C18        -11.2540    -0.2560     0.5620 cp         1 0V2      -0.035000
     66 C19        -11.9650    -1.4470     0.2670 ca         1 0V2      -0.099000
     67 C20        -13.3280    -1.5780     0.5850 ca         1 0V2      -0.111000
     68 C21        -14.0110    -0.5190     1.2040 ca         1 0V2      -0.107000
     69 C22        -13.3280     0.6710     1.5050 ca         1 0V2      -0.111000
     70 C23        -11.9650     0.8000     1.1870 ca         1 0V2      -0.099000
     71 H26        -11.4530    -2.2850    -0.1990 ha         1 0V2       0.114000
     72 H32        -13.8540    -2.5020     0.3540 ha         1 0V2       0.112500
     73 H33        -15.0660    -0.6200     1.4500 ha         1 0V2       0.112000
     74 H34        -13.8560     1.4940     1.9810 ha         1 0V2       0.112500
     75 H35        -11.4600     1.7350     1.4170 ha         1 0V2       0.114000
     76 H351         8.3730     4.4860    -0.3420 hn         1 0V2       0.323500
@<TRIPOS>BOND
     1     1     2 1   
     2     1    26 2   
     3     2     3 ar  
     4     2    22 ar  
     5     3     4 1   
     6     3    14 ar  
     7     4     5 1   
     8     4    28 1   
     9     4    29 1   
    10     5     6 1   
    11     5    30 1   
    12     5    31 1   
    13     6     7 1   
    14     6    32 1   
    15     7     8 1   
    16     7    33 1   
    17     7    34 1   
    18     8     9 1   
    19     8    13 1   
    20     8    35 1   
    21     9    10 1   
    22     9    36 1   
    23     9    37 1   
    24    10    11 1   
    25    10    38 1   
    26    10    39 1   
    27    11    12 1   
    28    11    40 1   
    29    11    53 1   
    30    12    13 1   
    31    12    41 1   
    32    12    42 1   
    33    13    43 1   
    34    13    44 1   
    35    14    15 ar  
    36    14    20 1   
    37    15    16 1   
    38    15    21 ar  
    39    16    17 1   
    40    16    45 1   
    41    17    18 1   
    42    17    20 2   
    43    18    19 1   
    44    18    46 1   
    45    19    47 1   
    46    19    48 1   
    47    19    49 1   
    48    21    22 ar  
    49    21    50 1   
    50    22    23 1   
    51    23    24 2   
    52    23    25 1   
    53    25    26 1   
    54    25    76 1   
    55    26    27 1   
    56    27    51 1   
    57    27    52 1   
    58    53    54 3   
    59    54    55 1   
    60    55    56 ar  
    61    55    60 ar  
    62    56    57 ar  
    63    56    61 1   
    64    57    58 ar  
    65    57    62 1   
    66    58    59 ar  
    67    58    65 1   
    68    59    60 ar  
    69    59    63 1   
    70    60    64 1   
    71    65    66 ar  
    72    65    70 ar  
    73    66    67 ar  
    74    66    71 1   
    75    67    68 ar  
    76    67    72 1   
    77    68    69 ar  
    78    68    73 1   
    79    69    70 ar  
    80    69    74 1   
    81    70    75 1   
@<TRIPOS>SUBSTRUCTURE
     1 0V2         1 TEMP              0 ****  ****    0 ROOT
