@<TRIPOS>MOLECULE
0V2
   76    81     1     0     0
SMALL
bcc


@<TRIPOS>ATOM
      1 N1           5.5960     2.3700     0.3850 nc         1 0V2      -0.698100
      2 C1           6.4200     1.2710     0.3590 ca         1 0V2       0.220400
      3 C2           5.8520     0.0160     0.6460 ca         1 0V2      -0.060300
      4 C3           4.3950    -0.1390     0.9560 c3         1 0V2      -0.013100
      5 C4           3.5700    -0.3730    -0.3070 c3         1 0V2       0.163800
      6 N2           2.1580    -0.4700     0.0030 n7         1 0V2      -0.808200
      7 C5           1.3390    -0.7420    -1.1620 c3         1 0V2       0.163800
      8 C6          -0.1470    -0.7640    -0.8260 c6         1 0V2      -0.061700
      9 C7          -0.9700    -1.1900    -2.0410 c6         1 0V2      -0.070900
     10 C8          -2.4630    -1.2170    -1.7370 c6         1 0V2      -0.068900
     11 C9          -2.9440     0.1460    -1.2200 c6         1 0V2       0.019400
     12 C24         -2.1280     0.5680     0.0100 c6         1 0V2      -0.068900
     13 C25         -0.6380     0.5850    -0.3070 c6         1 0V2      -0.070900
     14 C26          6.6890    -1.0910     0.5850 ca         1 0V2       0.160400
     15 C27          8.0620    -0.9500     0.2640 ca         1 0V2      -0.117200
     16 N3           8.5600    -2.2360     0.2960 na         1 0V2      -0.307300
     17 C28          7.5200    -3.0560     0.6100 cc         1 0V2       0.688700
     18 N4           7.6630    -4.3810     0.6990 nu         1 0V2      -0.860200
     19 C29          8.9160    -5.0710     0.5140 c3         1 0V2       0.219100
     20 N5           6.3850    -2.4080     0.7950 nd         1 0V2      -0.671100
     21 C30          8.6380     0.2600    -0.0030 ca         1 0V2      -0.045000
     22 C40          7.7970     1.3820     0.0460 ca         1 0V2      -0.229600
     23 C41          8.3480     2.6910    -0.2370 c          1 0V2       0.736100
     24 O1           9.5140     2.9300    -0.5160 o          1 0V2      -0.629500
     25 N6           7.4270     3.7130    -0.1700 ns         1 0V2      -0.519400
     26 C42          6.1050     3.5280     0.1310 cd         1 0V2       0.701800
     27 N7           5.3500     4.6500     0.2000 nv         1 0V2      -0.919800
     28 H2           4.2550    -0.9830     1.6360 hc         1 0V2       0.062700
     29 H3           4.0190     0.7520     1.4610 hc         1 0V2       0.062700
     30 H4           3.7150     0.4690    -0.9900 h1         1 0V2       0.032700
     31 H5           3.9560    -1.2660    -0.8250 h1         1 0V2       0.032700
     32 H6           2.0220    -1.2200     0.6720 hn         1 0V2       0.347800
     33 H8           1.5240     0.0460    -1.9020 h1         1 0V2       0.026700
     34 H9           1.6120    -1.6920    -1.6510 h1         1 0V2       0.026700
     35 H10         -0.3080    -1.5130    -0.0380 hc         1 0V2       0.045700
     36 H11         -0.7800    -0.4930    -2.8670 hc         1 0V2       0.044950
     37 H12         -0.6510    -2.1770    -2.3860 hc         1 0V2       0.044950
     38 H13         -3.0280    -1.4980    -2.6290 hc         1 0V2       0.045700
     39 H14         -2.6710    -1.9770    -0.9770 hc         1 0V2       0.045700
     40 H15         -2.7680     0.8860    -2.0110 hc         1 0V2       0.062700
     41 H17         -2.4550     1.5530     0.3510 hc         1 0V2       0.045700
     42 H18         -2.3290    -0.1340     0.8260 hc         1 0V2       0.045700
     43 H19         -0.0710     0.8750     0.5800 hc         1 0V2       0.044950
     44 H20         -0.4410     1.3510    -1.0670 hc         1 0V2       0.044950
     45 H21          9.5110    -2.5100     0.1110 hn         1 0V2       0.306700
     46 H22          6.8510    -4.9040     0.9750 hn         1 0V2       0.467800
     47 H23          9.3630    -4.8400    -0.4550 h1         1 0V2       0.039700
     48 H24          9.6420    -4.8360     1.2960 h1         1 0V2       0.039700
     49 H25          8.7260    -6.1390     0.5430 h1         1 0V2       0.039700
     50 H27          9.6870     0.3640    -0.2460 ha         1 0V2       0.154000
     51 H28          5.6350     5.4640    -0.3200 hn         1 0V2       0.429800
     52 H29          4.3540     4.5010     0.2260 hn         1 0V2       0.429800
     53 C10         -4.3730     0.1340    -0.9340 c1         1 0V2      -0.106100
     54 C11         -5.5540     0.1140    -0.6880 cg         1 0V2      -0.135000
     55 C12         -6.9510     0.0970    -0.4060 ca         1 0V2       0.040000
     56 C13         -7.4360     0.5090     0.8380 ca         1 0V2      -0.110500
     57 C14         -8.7930     0.4910     1.1050 ca         1 0V2      -0.120500
     58 C15         -9.7130     0.0640     0.1450 cp         1 0V2      -0.029000
     59 C16         -9.2230    -0.3470    -1.0970 ca         1 0V2      -0.120500
     60 C17         -7.8680    -0.3320    -1.3710 ca         1 0V2      -0.110500
     61 H7          -6.7430     0.8370     1.6020 ha         1 0V2       0.137500
     62 H16         -9.1370     0.7980     2.0850 ha         1 0V2       0.134000
     63 H30         -9.9110    -0.6650    -1.8710 ha         1 0V2       0.134000
     64 H31         -7.5130    -0.6500    -2.3430 ha         1 0V2       0.137500
     65 C18        -11.1600     0.0440     0.4340 cp         1 0V2      -0.035000
     66 C19        -11.9750    -0.9710    -0.0720 ca         1 0V2      -0.117000
     67 C20        -13.3350    -0.9920     0.1980 ca         1 0V2      -0.129000
     68 C21        -13.9070     0.0020     0.9820 ca         1 0V2      -0.125000
     69 C22        -13.1080     1.0160     1.4910 ca         1 0V2      -0.129000
     70 C23        -11.7480     1.0370     1.2200 ca         1 0V2      -0.117000
     71 H26        -11.5400    -1.7650    -0.6660 ha         1 0V2       0.132000
     72 H32        -13.9470    -1.7920    -0.1990 ha         1 0V2       0.130500
     73 H33        -14.9680    -0.0150     1.1940 ha         1 0V2       0.130000
     74 H34        -13.5450     1.8000     2.0950 ha         1 0V2       0.130500
     75 H35        -11.1440     1.8470     1.6100 ha         1 0V2       0.132000
     76 H351         7.7710     4.6480    -0.3470 hn         1 0V2       0.323500
@<TRIPOS>BOND
     1     1     2 1   
     2     1    26 2   
     3     2     3 ar  
     4     2    22 ar  
     5     3     4 1   
     6     3    14 ar  
     7     4     5 1   
     8     4    28 1   
     9     4    29 1   
    10     5     6 1   
    11     5    30 1   
    12     5    31 1   
    13     6     7 1   
    14     6    32 1   
    15     7     8 1   
    16     7    33 1   
    17     7    34 1   
    18     8     9 1   
    19     8    13 1   
    20     8    35 1   
    21     9    10 1   
    22     9    36 1   
    23     9    37 1   
    24    10    11 1   
    25    10    38 1   
    26    10    39 1   
    27    11    12 1   
    28    11    40 1   
    29    11    53 1   
    30    12    13 1   
    31    12    41 1   
    32    12    42 1   
    33    13    43 1   
    34    13    44 1   
    35    14    15 ar  
    36    14    20 1   
    37    15    16 1   
    38    15    21 ar  
    39    16    17 1   
    40    16    45 1   
    41    17    18 1   
    42    17    20 2   
    43    18    19 1   
    44    18    46 1   
    45    19    47 1   
    46    19    48 1   
    47    19    49 1   
    48    21    22 ar  
    49    21    50 1   
    50    22    23 1   
    51    23    24 2   
    52    23    25 1   
    53    25    26 1   
    54    25    76 1   
    55    26    27 1   
    56    27    51 1   
    57    27    52 1   
    58    53    54 3   
    59    54    55 1   
    60    55    56 ar  
    61    55    60 ar  
    62    56    57 ar  
    63    56    61 1   
    64    57    58 ar  
    65    57    62 1   
    66    58    59 ar  
    67    58    65 1   
    68    59    60 ar  
    69    59    63 1   
    70    60    64 1   
    71    65    66 ar  
    72    65    70 ar  
    73    66    67 ar  
    74    66    71 1   
    75    67    68 ar  
    76    67    72 1   
    77    68    69 ar  
    78    68    73 1   
    79    69    70 ar  
    80    69    74 1   
    81    70    75 1   
@<TRIPOS>SUBSTRUCTURE
     1 0V2         1 TEMP              0 ****  ****    0 ROOT
