@<TRIPOS>MOLECULE
0V3
   65    69     1     0     0
SMALL
bcc


@<TRIPOS>ATOM
      1 N2           3.5750    -2.3190     0.3780 nc         1 0V3      -0.699100
      2 C1           4.3910    -1.2190     0.2650 ca         1 0V3       0.220400
      3 C2           5.7540    -1.3380    -0.1030 ca         1 0V3      -0.229600
      4 C3           6.5900    -0.2190    -0.2270 ca         1 0V3      -0.045000
      5 C4           6.0220     0.9990     0.0220 ca         1 0V3      -0.117200
      6 N3           6.5180     2.2870    -0.0090 na         1 0V3      -0.308300
      7 C5           5.4890     3.1160     0.3180 cc         1 0V3       0.687700
      8 N4           5.6320     4.4440     0.3530 nu         1 0V3      -0.858200
      9 C6           6.8850     5.1250     0.1410 c3         1 0V3       0.218100
     10 N5           4.3650     2.4730     0.5710 nd         1 0V3      -0.672100
     11 C7           4.6630     1.1500     0.3940 ca         1 0V3       0.160400
     12 C8           3.8320     0.0460     0.5300 ca         1 0V3      -0.061300
     13 C9           2.3900     0.2100     0.8990 c3         1 0V3      -0.012100
     14 C10          1.5080     0.4190    -0.3300 c3         1 0V3       0.163800
     15 N6           0.1120     0.5090     0.0440 n7         1 0V3      -0.810200
     16 C11         -0.7690     0.7430    -1.0830 c3         1 0V3       0.164800
     17 C12         -2.2360     0.7400    -0.6680 c6         1 0V3      -0.061700
     18 C13         -2.6670    -0.6100    -0.1010 c6         1 0V3      -0.070900
     19 C14         -4.1370    -0.6170     0.3030 c6         1 0V3      -0.068400
     20 C15         -5.0340    -0.2280    -0.8800 c6         1 0V3       0.017400
     21 C16         -6.4400    -0.2250    -0.4940 c1         1 0V3      -0.094100
     22 C17         -7.5970    -0.2060    -0.1550 cg         1 0V3      -0.141000
     23 C23         -4.6090     1.1330    -1.4500 c6         1 0V3      -0.068400
     24 C24         -3.1350     1.1240    -1.8410 c6         1 0V3      -0.070900
     25 C25          6.2950    -2.6560    -0.3660 c          1 0V3       0.735100
     26 O1           7.4490    -2.9030    -0.6870 o          1 0V3      -0.628500
     27 N8           5.3790    -3.6770    -0.2290 ns         1 0V3      -0.520400
     28 C26          4.0740    -3.4830     0.1330 cd         1 0V3       0.705800
     29 N9           3.2990    -4.5920     0.1760 nv         1 0V3      -0.923800
     30 H2           7.6280    -0.3300    -0.5100 ha         1 0V3       0.154000
     31 H3           7.4590     2.5560    -0.2440 hn         1 0V3       0.306700
     32 H4           4.8350     4.9720     0.6670 hn         1 0V3       0.466800
     33 H5           7.6180     4.9080     0.9220 h1         1 0V3       0.040033
     34 H6           7.3220     4.8680    -0.8260 h1         1 0V3       0.040033
     35 H7           6.6970     6.1950     0.1430 h1         1 0V3       0.040033
     36 H9           2.0350    -0.6690     1.4380 hc         1 0V3       0.061700
     37 H10          2.2810     1.0700     1.5660 hc         1 0V3       0.061700
     38 H11          1.8650     1.3060    -0.8780 h1         1 0V3       0.034700
     39 H12          1.6300    -0.4330    -1.0060 h1         1 0V3       0.034700
     40 H13         -0.0010     1.2710     0.7040 hn         1 0V3       0.347800
     41 H15         -0.5420     1.6900    -1.6010 h1         1 0V3       0.027700
     42 H16         -0.6040    -0.0530    -1.8180 h1         1 0V3       0.027700
     43 H17         -2.3700     1.5000     0.1150 hc         1 0V3       0.044700
     44 H18         -2.4980    -1.3830    -0.8600 hc         1 0V3       0.046200
     45 H19         -2.0450    -0.8750     0.7560 hc         1 0V3       0.046200
     46 H20         -4.4230    -1.6020     0.6780 hc         1 0V3       0.045700
     47 H21         -4.3010     0.0950     1.1190 hc         1 0V3       0.045700
     48 H22         -4.9030    -0.9810    -1.6670 hc         1 0V3       0.065700
     49 H24         -5.2290     1.3860    -2.3130 hc         1 0V3       0.045700
     50 H25         -4.7860     1.9030    -0.6930 hc         1 0V3       0.045700
     51 H26         -2.8550     2.1090    -2.2240 hc         1 0V3       0.046200
     52 H27         -2.9810     0.4130    -2.6620 hc         1 0V3       0.046200
     53 H28          2.4080    -4.4870     0.6320 hn         1 0V3       0.431800
     54 H29          3.7320    -5.4920     0.2980 hn         1 0V3       0.431800
     55 C18         -8.9630    -0.1850     0.2450 ca         1 0V3      -0.076300
     56 C19         -9.9880    -0.1130    -0.7040 ca         1 0V3       0.418200
     57 N1         -11.2730    -0.0890    -0.3930 nb         1 0V3      -0.667000
     58 C21        -11.6090    -0.1360     0.8920 ca         1 0V3       0.402200
     59 C22        -10.6770    -0.2100     1.9170 ca         1 0V3      -0.248300
     60 C27         -9.3330    -0.2350     1.5900 ca         1 0V3      -0.077000
     61 H8          -9.7380    -0.0740    -1.7590 h4         1 0V3       0.024100
     62 H14        -12.6690    -0.1150     1.1170 h4         1 0V3       0.019100
     63 H23        -11.0000    -0.2460     2.9480 ha         1 0V3       0.142000
     64 H30         -8.5750    -0.2910     2.3610 ha         1 0V3       0.143000
     65 H1           5.7110    -4.6130    -0.4200 hn         1 0V3       0.323500
@<TRIPOS>BOND
     1     1     2 1   
     2     1    28 2   
     3     2     3 ar  
     4     2    12 ar  
     5     3     4 ar  
     6     3    25 1   
     7     4     5 ar  
     8     4    30 1   
     9     5     6 1   
    10     5    11 ar  
    11     6     7 1   
    12     6    31 1   
    13     7     8 1   
    14     7    10 2   
    15     8     9 1   
    16     8    32 1   
    17     9    33 1   
    18     9    34 1   
    19     9    35 1   
    20    10    11 1   
    21    11    12 ar  
    22    12    13 1   
    23    13    14 1   
    24    13    36 1   
    25    13    37 1   
    26    14    15 1   
    27    14    38 1   
    28    14    39 1   
    29    15    16 1   
    30    15    40 1   
    31    16    17 1   
    32    16    41 1   
    33    16    42 1   
    34    17    18 1   
    35    17    24 1   
    36    17    43 1   
    37    18    19 1   
    38    18    44 1   
    39    18    45 1   
    40    19    20 1   
    41    19    46 1   
    42    19    47 1   
    43    20    21 1   
    44    20    23 1   
    45    20    48 1   
    46    21    22 3   
    47    22    55 1   
    48    23    24 1   
    49    23    49 1   
    50    23    50 1   
    51    24    51 1   
    52    24    52 1   
    53    25    26 2   
    54    25    27 1   
    55    27    28 1   
    56    27    65 1   
    57    28    29 1   
    58    29    53 1   
    59    29    54 1   
    60    55    56 ar  
    61    55    60 ar  
    62    56    57 ar  
    63    56    61 1   
    64    57    58 ar  
    65    58    59 ar  
    66    58    62 1   
    67    59    60 ar  
    68    59    63 1   
    69    60    64 1   
@<TRIPOS>SUBSTRUCTURE
     1 0V3         1 TEMP              0 ****  ****    0 ROOT
