@<TRIPOS>MOLECULE
0V3
   65    69     1     0     0
SMALL
No Charge or Current Charge


@<TRIPOS>ATOM
      1 N2           3.7950    -2.4570     0.2730 nc         1 0V3      -0.699100
      2 C1           4.5740    -1.2810     0.2180 ca         1 0V3       0.220400
      3 C2           5.9630    -1.2970    -0.0980 ca         1 0V3      -0.229600
      4 C3           6.7160    -0.1030    -0.1530 ca         1 0V3      -0.027000
      5 C4           6.0470     1.0890     0.1120 ca         1 0V3      -0.117200
      6 N3           6.5090     2.3700     0.1230 na         1 0V3      -0.358600
      7 C5           5.4290     3.1610     0.4370 cc         1 0V3       0.687700
      8 N4           5.4620     4.5040     0.5490 nu         1 0V3      -0.913400
      9 C6           6.6020     5.3890     0.2700 c3         1 0V3       0.218100
     10 N5           4.3110     2.4680     0.6280 nd         1 0V3      -0.672100
     11 C7           4.7170     1.1440     0.4190 ca         1 0V3       0.160400
     12 C8           3.9400    -0.0300     0.4880 ca         1 0V3      -0.061300
     13 C9           2.4470     0.0670     0.8270 c3         1 0V3      -0.012100
     14 C10          1.5720     0.1560    -0.4400 c3         1 0V3       0.163800
     15 N6           0.1440     0.2950    -0.0870 n7         1 0V3      -0.865400
     16 C11         -0.7800     0.3560    -1.2360 c3         1 0V3       0.164800
     17 C12         -2.2700     0.4970    -0.8030 c6         1 0V3      -0.061700
     18 C13         -2.7720    -0.7360     0.0060 c6         1 0V3      -0.070900
     19 C14         -4.2580    -0.5830     0.4160 c6         1 0V3      -0.068400
     20 C15         -5.1640    -0.3420    -0.8220 c6         1 0V3       0.017400
     21 C16         -6.5780    -0.1850    -0.4240 c1         1 0V3      -0.094100
     22 C17         -7.7350    -0.0450    -0.0820 cg         1 0V3      -0.141000
     23 C23         -4.6700     0.8900    -1.6280 c6         1 0V3      -0.068400
     24 C24         -3.1840     0.7350    -2.0370 c6         1 0V3      -0.070900
     25 C25          6.6160    -2.6010    -0.3790 c          1 0V3       0.592600
     26 O1           7.7960    -2.7320    -0.6640 o          1 0V3      -0.553000
     27 N8           5.7830    -3.6530    -0.2940 ns         1 0V3      -0.453400
     28 C26          4.4860    -3.5350     0.0090 cd         1 0V3       0.705800
     29 N9           3.7900    -4.6580     0.0590 nv         1 0V3      -1.034200
     30 H2           7.7780    -0.1060    -0.3960 ha         1 0V3       0.136000
     31 H3           7.4450     2.6980    -0.0570 hn         1 0V3       0.357000
     32 H4           4.5490     4.9100     0.7440 hn         1 0V3       0.522000
     33 H5           7.4380     5.1650     0.9460 h1         1 0V3       0.040033
     34 H6           6.9440     5.2610    -0.7660 h1         1 0V3       0.040033
     35 H7           6.3150     6.4400     0.4120 h1         1 0V3       0.040033
     36 H9           2.1250    -0.7920     1.4280 hc         1 0V3       0.061700
     37 H10          2.2560     0.9460     1.4540 hc         1 0V3       0.061700
     38 H11          1.9020     1.0170    -1.0380 h1         1 0V3       0.034700
     39 H12          1.7300    -0.7480    -1.0440 h1         1 0V3       0.034700
     40 H13          0.0320     1.1580     0.4560 hn         1 0V3       0.403000
     41 H15         -0.5240     1.2160    -1.8690 h1         1 0V3       0.027700
     42 H16         -0.6800    -0.5480    -1.8520 h1         1 0V3       0.027700
     43 H17         -2.3250     1.3860    -0.1590 hc         1 0V3       0.044700
     44 H18         -2.6470    -1.6500    -0.5920 hc         1 0V3       0.046200
     45 H19         -2.1620    -0.8720     0.9100 hc         1 0V3       0.046200
     46 H20         -4.5840    -1.4860     0.9510 hc         1 0V3       0.045700
     47 H21         -4.3580     0.2520     1.1240 hc         1 0V3       0.045700
     48 H22         -5.1240    -1.2290    -1.4690 hc         1 0V3       0.065700
     49 H24         -5.2860     1.0230    -2.5280 hc         1 0V3       0.045700
     50 H25         -4.7910     1.8040    -1.0300 hc         1 0V3       0.045700
     51 H26         -2.8590     1.6360    -2.5760 hc         1 0V3       0.046200
     52 H27         -3.0830    -0.1020    -2.7430 hc         1 0V3       0.046200
     53 H28          2.8710    -4.5410     0.4670 hn         1 0V3       0.487000
     54 H29          4.2810    -5.5000     0.3300 hn         1 0V3       0.487000
     55 C18         -9.0980     0.1270     0.3310 ca         1 0V3      -0.011000
     56 C19        -10.0090     0.8620    -0.4590 ca         1 0V3       0.352900
     57 N1         -11.3080     1.0540    -0.1140 nb         1 0V3      -0.667000
     58 C21        -11.7360     0.5070     1.0480 ca         1 0V3       0.336900
     59 C22        -10.8990    -0.2390     1.8960 ca         1 0V3      -0.165000
     60 C27         -9.5540    -0.4360     1.5360 ca         1 0V3      -0.059000
     61 H8          -9.6910     1.3120    -1.3990 h4         1 0V3       0.024100
     62 H14        -12.7820     0.6730     1.3060 h4         1 0V3       0.019100
     63 H23        -11.2940    -0.6560     2.8180 ha         1 0V3       0.124000
     64 H30         -8.8870    -1.0100     2.1760 ha         1 0V3       0.125000
     65 H1           6.1780    -4.5560    -0.4970 hn         1 0V3       0.323500
@<TRIPOS>BOND
     1     1     2 1   
     2     1    28 2   
     3     2     3 ar  
     4     2    12 ar  
     5     3     4 ar  
     6     3    25 1   
     7     4     5 ar  
     8     4    30 1   
     9     5     6 1   
    10     5    11 ar  
    11     6     7 1   
    12     6    31 1   
    13     7     8 1   
    14     7    10 2   
    15     8     9 1   
    16     8    32 1   
    17     9    33 1   
    18     9    34 1   
    19     9    35 1   
    20    10    11 1   
    21    11    12 ar  
    22    12    13 1   
    23    13    14 1   
    24    13    36 1   
    25    13    37 1   
    26    14    15 1   
    27    14    38 1   
    28    14    39 1   
    29    15    16 1   
    30    15    40 1   
    31    16    17 1   
    32    16    41 1   
    33    16    42 1   
    34    17    18 1   
    35    17    24 1   
    36    17    43 1   
    37    18    19 1   
    38    18    44 1   
    39    18    45 1   
    40    19    20 1   
    41    19    46 1   
    42    19    47 1   
    43    20    21 1   
    44    20    23 1   
    45    20    48 1   
    46    21    22 3   
    47    22    55 1   
    48    23    24 1   
    49    23    49 1   
    50    23    50 1   
    51    24    51 1   
    52    24    52 1   
    53    25    26 2   
    54    25    27 1   
    55    27    28 1   
    56    27    65 1   
    57    28    29 1   
    58    29    53 1   
    59    29    54 1   
    60    55    56 ar  
    61    55    60 ar  
    62    56    57 ar  
    63    56    61 1   
    64    57    58 ar  
    65    58    59 ar  
    66    58    62 1   
    67    59    60 ar  
    68    59    63 1   
    69    60    64 1   
@<TRIPOS>SUBSTRUCTURE
     1 0V3         1 TEMP              0 ****  ****    0 ROOT
