@<TRIPOS>MOLECULE
0V4
   79    82     1     0     0
SMALL
No Charge or Current Charge


@<TRIPOS>ATOM
      1 C1         -10.3480   -22.1460    -7.9890 c6         1 0V4       0.390300
      2 O1          -9.8770   -22.6310    -6.7220 os         1 0V4      -0.491000
      3 C2         -11.6780   -22.8670    -8.3770 c6         1 0V4       0.156300
      4 O2         -12.6760   -22.7430    -7.3340 oh         1 0V4      -0.722000
      5 C3         -11.3890   -24.3710    -8.6620 c6         1 0V4       0.137300
      6 O3         -12.5780   -25.0500    -9.1060 oh         1 0V4      -0.675000
      7 C4         -10.2620   -24.5050    -9.7260 c6         1 0V4       0.121300
      8 O4          -9.9530   -25.8870    -9.9790 oh         1 0V4      -0.734000
      9 C5          -8.9950   -23.7410    -9.2310 c6         1 0V4       0.126300
     10 O5          -9.3210   -22.3500    -8.9860 os         1 0V4      -0.477000
     11 C6          -7.8270   -23.7860   -10.2650 c3         1 0V4       0.158600
     12 O6          -7.4530   -25.1380   -10.6090 oh         1 0V4      -0.744000
     13 OAA         -5.5350   -16.0890    -4.8710 os         1 0V4      -0.465000
     14 CAB         -9.5620   -19.6760    -4.3190 c3         1 0V4      -0.042700
     15 CAC         -8.1780   -19.8490    -3.5770 c5         1 0V4      -0.023500
     16 CAD         -6.9450   -19.6070    -4.4540 c2         1 0V4      -0.094400
     17 CAE         -6.2740   -20.4750    -5.2460 c2         1 0V4      -0.215200
     18 CAF         -6.5770   -21.9710    -5.4340 c5         1 0V4       0.031400
     19 CAG         -8.0110   -22.4510    -5.2360 c2         1 0V4      -0.140400
     20 CAH         -9.1380   -21.7000    -5.9170 c3         1 0V4       0.195500
     21 CAI        -10.1000   -21.0280    -4.8830 c3         1 0V4       0.170300
     22 CAJ         -5.8640   -22.7580    -4.2430 c5         1 0V4      -0.071400
     23 CAK         -6.7430   -24.0490    -3.9660 c5         1 0V4      -0.049200
     24 CAL         -8.1000   -23.5790    -4.4850 c2         1 0V4      -0.080400
     25 CAM         -7.9320   -18.8880    -2.3730 c5         1 0V4      -0.079400
     26 CAN         -7.2950   -17.6300    -3.0180 c5         1 0V4      -0.068400
     27 CAO         -6.3590   -18.2370    -4.1070 c5         1 0V4      -0.034500
     28 CAP         -6.1410   -17.3110    -5.3310 c3         1 0V4       0.164600
     29 CAQ         -9.6080   -18.5420    -5.3890 c3         1 0V4      -0.082100
     30 OAR        -11.4370   -20.8730    -5.4100 oh         1 0V4      -0.737000
     31 CAT         -9.3630   -24.3800    -4.1660 c3         1 0V4      -0.022500
     32 CAU         -9.6330   -24.4540    -2.6470 c3         1 0V4      -0.084600
     33 CAV         -9.3130   -25.7800    -4.8120 c3         1 0V4      -0.084600
     34 CAW         -6.0770   -22.4460    -6.8200 c3         1 0V4      -0.078100
     35 CBI         -5.2850   -15.1250    -5.9070 c3         1 0V4       0.146900
     36 H1         -10.5560   -21.0680    -7.9030 h2         1 0V4       0.088700
     37 H2         -12.0480   -22.4050    -9.3050 h1         1 0V4       0.062700
     38 HO2        -13.3410   -23.4460    -7.5400 ho         1 0V4       0.530000
     39 H3         -11.0250   -24.8310    -7.7300 h1         1 0V4       0.069700
     40 HO3        -12.2440   -25.8560    -9.5660 ho         1 0V4       0.465000
     41 H4         -10.6010   -24.0260   -10.6580 h1         1 0V4       0.049700
     42 HO4         -8.9970   -25.8620   -10.2780 ho         1 0V4       0.534000
     43 H5          -8.6330   -24.1920    -8.2950 h1         1 0V4       0.083700
     44 H6          -8.1390   -23.2380   -11.1650 h1         1 0V4       0.043200
     45 H6A         -6.9700   -23.2520    -9.8320 h1         1 0V4       0.043200
     46 HO6         -6.6220   -25.0800   -11.1410 ho         1 0V4       0.516000
     47 HAB        -10.2940   -19.3890    -3.5540 hc         1 0V4       0.060700
     48 HAC         -8.1690   -20.8680    -3.1740 hc         1 0V4       0.062700
     49 HAE         -5.3610   -20.1080    -5.7140 ha         1 0V4       0.164000
     50 HAH         -8.6880   -20.9270    -6.5530 h1         1 0V4       0.059700
     51 HAI        -10.1660   -21.7070    -4.0230 h1         1 0V4       0.039700
     52 HAJ         -4.8190   -23.0050    -4.4650 hc         1 0V4       0.046700
     53 HAJA        -5.8450   -22.1390    -3.3380 hc         1 0V4       0.046700
     54 HAK         -6.3880   -24.9220    -4.5250 hc         1 0V4       0.053200
     55 HAKA        -6.7540   -24.3050    -2.9020 hc         1 0V4       0.053200
     56 HAM         -8.8450   -18.6570    -1.8130 hc         1 0V4       0.045200
     57 HAMA        -7.2330   -19.3420    -1.6610 hc         1 0V4       0.045200
     58 HAN         -8.0500   -16.9600    -3.4370 hc         1 0V4       0.050700
     59 HANA        -6.7360   -17.0340    -2.2870 hc         1 0V4       0.050700
     60 HAO         -5.3640   -18.3970    -3.6750 hc         1 0V4       0.064700
     61 HAP         -7.1050   -17.1070    -5.8140 h1         1 0V4       0.025700
     62 HAPA        -5.4900   -17.8110    -6.0590 h1         1 0V4       0.025700
     63 HAQ         -9.4410   -17.5600    -4.9430 hc         1 0V4       0.037367
     64 HAQA        -8.8610   -18.6980    -6.1750 hc         1 0V4       0.037367
     65 HAQB       -10.5900   -18.4900    -5.8720 hc         1 0V4       0.037367
     66 HOAR       -11.6210   -21.6870    -5.9510 ho         1 0V4       0.533000
     67 HAT        -10.2380   -23.8850    -4.5980 hc         1 0V4       0.065700
     68 HAU        -10.6030   -24.9250    -2.4510 hc         1 0V4       0.035200
     69 HAUA        -8.8620   -25.0410    -2.1330 hc         1 0V4       0.035200
     70 HAUB        -9.6490   -23.4480    -2.2100 hc         1 0V4       0.035200
     71 HAV        -10.2560   -26.3160    -4.6480 hc         1 0V4       0.035200
     72 HAVA        -9.1530   -25.6970    -5.8940 hc         1 0V4       0.035200
     73 HAVB        -8.5000   -26.3820    -4.3880 hc         1 0V4       0.035200
     74 HAW         -6.2460   -23.5210    -6.9600 hc         1 0V4       0.037367
     75 HAWA        -6.5980   -21.9200    -7.6280 hc         1 0V4       0.037367
     76 HAWB        -5.0030   -22.2620    -6.9410 hc         1 0V4       0.037367
     77 HBI         -4.8240   -14.2230    -5.4840 h1         1 0V4       0.028700
     78 HBIA        -4.6040   -15.5340    -6.6650 h1         1 0V4       0.028700
     79 HBIB        -6.2200   -14.8310    -6.4010 h1         1 0V4       0.028700
@<TRIPOS>BOND
     1     1     2 1   
     2     1     3 1   
     3     1    10 1   
     4     1    36 1   
     5     2    20 1   
     6     3     4 1   
     7     3     5 1   
     8     3    37 1   
     9     4    38 1   
    10     5     6 1   
    11     5     7 1   
    12     5    39 1   
    13     6    40 1   
    14     7     8 1   
    15     7     9 1   
    16     7    41 1   
    17     8    42 1   
    18     9    10 1   
    19     9    11 1   
    20     9    43 1   
    21    11    12 1   
    22    11    44 1   
    23    11    45 1   
    24    12    46 1   
    25    13    28 1   
    26    13    35 1   
    27    14    15 1   
    28    14    21 1   
    29    14    29 1   
    30    14    47 1   
    31    15    16 1   
    32    15    25 1   
    33    15    48 1   
    34    16    17 2   
    35    16    27 1   
    36    17    18 1   
    37    17    49 1   
    38    18    19 1   
    39    18    22 1   
    40    18    34 1   
    41    19    20 1   
    42    19    24 2   
    43    20    21 1   
    44    20    50 1   
    45    21    30 1   
    46    21    51 1   
    47    22    23 1   
    48    22    52 1   
    49    22    53 1   
    50    23    24 1   
    51    23    54 1   
    52    23    55 1   
    53    24    31 1   
    54    25    26 1   
    55    25    56 1   
    56    25    57 1   
    57    26    27 1   
    58    26    58 1   
    59    26    59 1   
    60    27    28 1   
    61    27    60 1   
    62    28    61 1   
    63    28    62 1   
    64    29    63 1   
    65    29    64 1   
    66    29    65 1   
    67    30    66 1   
    68    31    32 1   
    69    31    33 1   
    70    31    67 1   
    71    32    68 1   
    72    32    69 1   
    73    32    70 1   
    74    33    71 1   
    75    33    72 1   
    76    33    73 1   
    77    34    74 1   
    78    34    75 1   
    79    34    76 1   
    80    35    77 1   
    81    35    78 1   
    82    35    79 1   
@<TRIPOS>SUBSTRUCTURE
     1 0V4         1 TEMP              0 ****  ****    0 ROOT
