@<TRIPOS>MOLECULE
0V4
   79    82     1     0     0
SMALL
abcg2


@<TRIPOS>ATOM
      1 C1         -10.3050   -22.3400    -8.3510 c6         1 0V4       0.390300
      2 O1         -10.1400   -22.4940    -6.9750 os         1 0V4      -0.491000
      3 C2         -11.6200   -23.0100    -8.7360 c6         1 0V4       0.156300
      4 O2         -12.6630   -22.4010    -7.9830 oh         1 0V4      -0.722000
      5 C3         -11.5320   -24.5070    -8.4930 c6         1 0V4       0.137300
      6 O3         -12.7550   -25.0750    -8.9610 oh         1 0V4      -0.675000
      7 C4         -10.3220   -25.0870    -9.2120 c6         1 0V4       0.121300
      8 O4         -10.2190   -26.4580    -8.8350 oh         1 0V4      -0.734000
      9 C5          -9.0520   -24.3040    -8.8510 c6         1 0V4       0.126300
     10 O5          -9.2430   -22.9080    -9.0940 os         1 0V4      -0.477000
     11 C6          -7.8510   -24.7000    -9.6910 c3         1 0V4       0.158600
     12 O6          -7.5510   -26.0750    -9.4160 oh         1 0V4      -0.744000
     13 OAA         -5.3920   -16.2860    -3.7790 os         1 0V4      -0.465000
     14 CAB         -9.6300   -19.6270    -4.5580 c3         1 0V4      -0.042700
     15 CAC         -8.3980   -19.9780    -3.6670 c5         1 0V4      -0.023500
     16 CAD         -7.0350   -19.6600    -4.2710 c2         1 0V4      -0.094400
     17 CAE         -6.3630   -20.3070    -5.2190 c2         1 0V4      -0.215200
     18 CAF         -6.6970   -21.5320    -6.0460 c5         1 0V4       0.031400
     19 CAG         -8.0650   -22.1460    -5.7630 c2         1 0V4      -0.140400
     20 CAH         -9.3190   -21.5160    -6.3000 c3         1 0V4       0.195500
     21 CAI        -10.2160   -20.8790    -5.2260 c3         1 0V4       0.170300
     22 CAJ         -5.7500   -22.7000    -5.6470 c5         1 0V4      -0.071400
     23 CAK         -6.5390   -23.5200    -4.6230 c5         1 0V4      -0.049200
     24 CAL         -7.9790   -23.2440    -5.0000 c2         1 0V4      -0.080400
     25 CAM         -8.3780   -19.1920    -2.3390 c5         1 0V4      -0.079400
     26 CAN         -7.5610   -17.9340    -2.6310 c5         1 0V4      -0.068400
     27 CAO         -6.4450   -18.4310    -3.5640 c5         1 0V4      -0.034500
     28 CAP         -5.9380   -17.3690    -4.5240 c3         1 0V4       0.164600
     29 CAQ         -9.4100   -18.4880    -5.5570 c3         1 0V4      -0.082100
     30 OAR        -11.4720   -20.5140    -5.8010 oh         1 0V4      -0.737000
     31 CAT         -9.0950   -24.1090    -4.4750 c3         1 0V4      -0.022500
     32 CAU         -9.1620   -24.0480    -2.9410 c3         1 0V4      -0.084600
     33 CAV         -8.9590   -25.5660    -4.9400 c3         1 0V4      -0.084600
     34 CAW         -6.4940   -21.1630    -7.5260 c3         1 0V4      -0.078100
     35 CBI         -4.9070   -15.2500    -4.6140 c3         1 0V4       0.146900
     36 H1         -10.3140   -21.2840    -8.6280 h2         1 0V4       0.088700
     37 H2         -11.7800   -22.8360    -9.8050 h1         1 0V4       0.062700
     38 HO2        -13.4600   -22.9360    -8.0960 ho         1 0V4       0.530000
     39 H3         -11.4240   -24.6920    -7.4200 h1         1 0V4       0.069700
     40 HO3        -12.7870   -25.9970    -8.6780 ho         1 0V4       0.465000
     41 H4         -10.4880   -25.0020   -10.2940 h1         1 0V4       0.049700
     42 HO4         -9.3370   -26.7580    -9.1110 ho         1 0V4       0.534000
     43 H5          -8.8210   -24.4640    -7.7950 h1         1 0V4       0.083700
     44 H6          -8.0830   -24.5600   -10.7510 h1         1 0V4       0.043200
     45 H6A         -7.0020   -24.0620    -9.4290 h1         1 0V4       0.043200
     46 HO6         -6.9520   -26.4040   -10.0970 ho         1 0V4       0.516000
     47 HAB        -10.4170   -19.3060    -3.8700 hc         1 0V4       0.060700
     48 HAC         -8.4600   -21.0410    -3.4460 hc         1 0V4       0.062700
     49 HAE         -5.3800   -19.9150    -5.4740 ha         1 0V4       0.164000
     50 HAH         -9.0600   -20.7460    -7.0270 h1         1 0V4       0.059700
     51 HAI        -10.3870   -21.6260    -4.4440 h1         1 0V4       0.039700
     52 HAJ         -5.5670   -23.3140    -6.5330 hc         1 0V4       0.046700
     53 HAJA        -4.7870   -22.3450    -5.2800 hc         1 0V4       0.046700
     54 HAK         -6.2820   -24.5800    -4.6480 hc         1 0V4       0.053200
     55 HAKA        -6.3540   -23.1750    -3.5990 hc         1 0V4       0.053200
     56 HAM         -9.3810   -18.9820    -1.9640 hc         1 0V4       0.045200
     57 HAMA        -7.8630   -19.7900    -1.5810 hc         1 0V4       0.045200
     58 HAN         -8.1740   -17.1910    -3.1460 hc         1 0V4       0.050700
     59 HANA        -7.1690   -17.4610    -1.7300 hc         1 0V4       0.050700
     60 HAO         -5.5960   -18.7580    -2.9530 hc         1 0V4       0.064700
     61 HAP         -6.7620   -17.0080    -5.1530 h1         1 0V4       0.025700
     62 HAPA        -5.1660   -17.7770    -5.1880 h1         1 0V4       0.025700
     63 HAQ         -9.1950   -17.5540    -5.0400 hc         1 0V4       0.037367
     64 HAQA        -8.5750   -18.6920    -6.2260 hc         1 0V4       0.037367
     65 HAQB       -10.3060   -18.3390    -6.1590 hc         1 0V4       0.037367
     66 HOAR       -11.7900   -21.2720    -6.3180 ho         1 0V4       0.533000
     67 HAT        -10.0380   -23.7300    -4.8680 hc         1 0V4       0.065700
     68 HAU         -9.9990   -24.6470    -2.5770 hc         1 0V4       0.035200
     69 HAUA        -8.2470   -24.4400    -2.4910 hc         1 0V4       0.035200
     70 HAUB        -9.2980   -23.0230    -2.5900 hc         1 0V4       0.035200
     71 HAV         -9.8090   -26.1530    -4.5860 hc         1 0V4       0.035200
     72 HAVA        -8.9300   -25.6360    -6.0280 hc         1 0V4       0.035200
     73 HAVB        -8.0490   -26.0240    -4.5470 hc         1 0V4       0.035200
     74 HAW         -6.7390   -22.0090    -8.1680 hc         1 0V4       0.037367
     75 HAWA        -7.1140   -20.3150    -7.8220 hc         1 0V4       0.037367
     76 HAWB        -5.4520   -20.8860    -7.6970 hc         1 0V4       0.037367
     77 HBI         -4.5080   -14.4680    -3.9700 h1         1 0V4       0.028700
     78 HBIA        -4.1110   -15.6150    -5.2750 h1         1 0V4       0.028700
     79 HBIB        -5.7100   -14.8330    -5.2340 h1         1 0V4       0.028700
@<TRIPOS>BOND
     1     1     2 1   
     2     1     3 1   
     3     1    10 1   
     4     1    36 1   
     5     2    20 1   
     6     3     4 1   
     7     3     5 1   
     8     3    37 1   
     9     4    38 1   
    10     5     6 1   
    11     5     7 1   
    12     5    39 1   
    13     6    40 1   
    14     7     8 1   
    15     7     9 1   
    16     7    41 1   
    17     8    42 1   
    18     9    10 1   
    19     9    11 1   
    20     9    43 1   
    21    11    12 1   
    22    11    44 1   
    23    11    45 1   
    24    12    46 1   
    25    13    28 1   
    26    13    35 1   
    27    14    15 1   
    28    14    21 1   
    29    14    29 1   
    30    14    47 1   
    31    15    16 1   
    32    15    25 1   
    33    15    48 1   
    34    16    17 2   
    35    16    27 1   
    36    17    18 1   
    37    17    49 1   
    38    18    19 1   
    39    18    22 1   
    40    18    34 1   
    41    19    20 1   
    42    19    24 2   
    43    20    21 1   
    44    20    50 1   
    45    21    30 1   
    46    21    51 1   
    47    22    23 1   
    48    22    52 1   
    49    22    53 1   
    50    23    24 1   
    51    23    54 1   
    52    23    55 1   
    53    24    31 1   
    54    25    26 1   
    55    25    56 1   
    56    25    57 1   
    57    26    27 1   
    58    26    58 1   
    59    26    59 1   
    60    27    28 1   
    61    27    60 1   
    62    28    61 1   
    63    28    62 1   
    64    29    63 1   
    65    29    64 1   
    66    29    65 1   
    67    30    66 1   
    68    31    32 1   
    69    31    33 1   
    70    31    67 1   
    71    32    68 1   
    72    32    69 1   
    73    32    70 1   
    74    33    71 1   
    75    33    72 1   
    76    33    73 1   
    77    34    74 1   
    78    34    75 1   
    79    34    76 1   
    80    35    77 1   
    81    35    78 1   
    82    35    79 1   
@<TRIPOS>SUBSTRUCTURE
     1 0V4         1 TEMP              0 ****  ****    0 ROOT
