@<TRIPOS>MOLECULE
0V5
   14    13     1     0     0
SMALL
No Charge or Current Charge


@<TRIPOS>ATOM
      1 C1          31.6980    54.7020    -1.1970 c          1 0V5       0.710000
      2 O1          31.1440    54.0870    -2.1030 o          1 0V5      -0.795000
      3 O2          32.6690    55.4210    -1.4150 o          1 0V5      -0.795000
      4 C2          31.0750    54.6170     0.2610 c3         1 0V5       0.139300
      5 C3          31.2560    53.1920     0.8560 c3         1 0V5      -0.075100
      6 O4          31.6070    55.6250     1.1820 os         1 0V5      -0.597400
      7 P           31.0490    55.8870     2.6740 p5         1 0V5       1.305900
      8 O1P         29.5640    55.9970     2.6490 o          1 0V5      -0.955500
      9 O2P         31.4700    54.8030     3.6040 o          1 0V5      -0.955500
     10 O3P         31.6130    57.1740     3.1630 o          1 0V5      -0.955500
     11 H2          29.9970    54.7820     0.1330 h1         1 0V5       0.017700
     12 H3          30.6290    53.0420     1.7410 hc         1 0V5      -0.014633
     13 H4          30.9570    52.4320     0.1250 hc         1 0V5      -0.014633
     14 H5          32.3040    53.0060     1.1210 hc         1 0V5      -0.014633
@<TRIPOS>BOND
     1     1     2 1   
     2     1     3 1   
     3     1     4 1   
     4     4     5 1   
     5     4     6 1   
     6     4    11 1   
     7     5    12 1   
     8     5    13 1   
     9     5    14 1   
    10     6     7 1   
    11     7     8 1   
    12     7     9 1   
    13     7    10 1   
@<TRIPOS>SUBSTRUCTURE
     1 0V5         1 TEMP              0 ****  ****    0 ROOT
