@<TRIPOS>MOLECULE
0V5
   14    13     1     0     0
SMALL
abcg2


@<TRIPOS>ATOM
      1 C1          31.3250    54.8690    -0.8800 c          1 0V5       0.710000
      2 O1          30.4600    54.4560    -1.7000 o          1 0V5      -0.795000
      3 O2          32.3130    55.5930    -1.1530 o          1 0V5      -0.795000
      4 C2          31.1450    54.3560     0.5730 c3         1 0V5       0.139300
      5 C3          31.7270    52.9460     0.6820 c3         1 0V5      -0.075100
      6 O4          31.7640    55.1780     1.5510 os         1 0V5      -0.597400
      7 P           30.8080    56.1480     2.5320 p5         1 0V5       1.305900
      8 O1P         29.9750    57.0220     1.5960 o          1 0V5      -0.955500
      9 O2P         29.9600    55.1920     3.3720 o          1 0V5      -0.955500
     10 O3P         31.8630    56.9080     3.3280 o          1 0V5      -0.955500
     11 H2          30.0690    54.3060     0.7590 h1         1 0V5       0.017700
     12 H3          31.5530    52.5450     1.6820 hc         1 0V5      -0.014633
     13 H4          31.2660    52.2790    -0.0490 hc         1 0V5      -0.014633
     14 H5          32.8040    52.9700     0.5010 hc         1 0V5      -0.014633
@<TRIPOS>BOND
     1     1     2 1   
     2     1     3 1   
     3     1     4 1   
     4     4     5 1   
     5     4     6 1   
     6     4    11 1   
     7     5    12 1   
     8     5    13 1   
     9     5    14 1   
    10     6     7 1   
    11     7     8 1   
    12     7     9 1   
    13     7    10 1   
@<TRIPOS>SUBSTRUCTURE
     1 0V5         1 TEMP              0 ****  ****    0 ROOT
