@<TRIPOS>MOLECULE
0V6
   42    44     1     0     0
SMALL
No Charge or Current Charge


@<TRIPOS>ATOM
      1 C2           1.3690     0.5420    -0.5430 cc         1 0V6      -0.252300
      2 S1           0.3570    -0.8300    -1.0250 ss         1 0V6       0.275000
      3 C3           0.6080     1.4630     0.1590 cd         1 0V6       0.103000
      4 C4          -0.7470     1.0800     0.3460 cd         1 0V6      -0.116000
      5 C5          -1.0450    -0.1280    -0.2310 cc         1 0V6      -0.150000
      6 C6           3.4590    -0.6480    -1.3820 c6         1 0V6      -0.174400
      7 C7           3.5090    -1.6350    -0.2310 c          1 0V6       0.576000
      8 N8           3.7790    -1.1300     1.0470 n          1 0V6      -0.337300
      9 C9           4.0730     0.2250     1.2110 c2         1 0V6       0.684800
     10 N10          3.5350     1.0650     0.2870 nu         1 0V6      -0.944400
     11 C11          2.8360     0.6740    -0.9230 c6         1 0V6       0.332500
     12 C12          3.0170     1.7650    -2.0080 c3         1 0V6      -0.092100
     13 Cl           1.1400     2.9900     0.8020 cl         1 0V6      -0.180000
     14 C14         -2.3780    -0.7350    -0.1410 ca         1 0V6      -0.067000
     15 C15         -3.5430     0.0490     0.0060 ca         1 0V6      -0.044000
     16 C16         -4.7910    -0.5950     0.0800 ca         1 0V6      -0.008000
     17 C17         -4.8340    -2.0020     0.0010 ca         1 0V6       0.359900
     18 N18         -3.7280    -2.7700    -0.1460 nb         1 0V6      -0.659000
     19 C19         -2.5310    -2.1390    -0.2170 ca         1 0V6       0.348900
     20 O21          3.2700    -2.8210    -0.4240 o          1 0V6      -0.529000
     21 C22          3.8150    -2.0740     2.1880 c3         1 0V6       0.096300
     22 C23         -5.9960     0.1710     0.2280 cg         1 0V6      -0.141000
     23 C24         -7.0100     0.8270     0.3540 c1         1 0V6      -0.096100
     24 C25         -8.2090     1.6570     0.5090 c3         1 0V6      -0.011000
     25 H1          -1.4550     1.6880     0.8980 ha         1 0V6       0.151000
     26 H2           4.5050    -0.4300    -1.6320 hc         1 0V6       0.089700
     27 H3           2.9830    -1.0890    -2.2670 hc         1 0V6       0.089700
     28 H4           3.2820     1.9740     0.6550 hn         1 0V6       0.489000
     29 H5           2.6200     2.7330    -1.6850 hc         1 0V6       0.053033
     30 H6           4.0750     1.9110    -2.2570 hc         1 0V6       0.053033
     31 H7           2.4930     1.4880    -2.9310 hc         1 0V6       0.053033
     32 H11         -3.4890     1.1330     0.0480 ha         1 0V6       0.129000
     33 H12         -5.7850    -2.5330     0.0550 h4         1 0V6       0.029100
     34 H13         -1.6630    -2.7870    -0.3310 h4         1 0V6       0.027100
     35 H14          4.7830     1.7350     2.0160 hn         1 0V6       0.390400
     36 H15          4.7440    -2.6570     2.1540 h1         1 0V6       0.054700
     37 H16          3.7670    -1.5320     3.1410 h1         1 0V6       0.054700
     38 H17          2.9580    -2.7570     2.1400 h1         1 0V6       0.054700
     39 H18         -9.1120     1.0390     0.4430 hc         1 0V6       0.056367
     40 H19         -8.2000     2.1620     1.4820 hc         1 0V6       0.056367
     41 H20         -8.2500     2.4190    -0.2790 hc         1 0V6       0.056367
     42 N20          4.7160     0.7240     2.1760 n2         1 0V6      -0.864100
@<TRIPOS>BOND
     1     1     2 1   
     2     1     3 2   
     3     1    11 1   
     4     2     5 1   
     5     3     4 1   
     6     3    13 1   
     7     4     5 2   
     8     4    25 1   
     9     5    14 1   
    10     6     7 1   
    11     6    11 1   
    12     6    26 1   
    13     6    27 1   
    14     7     8 1   
    15     7    20 2   
    16     8     9 1   
    17     8    21 1   
    18     9    10 1   
    19     9    42 2   
    20    10    11 1   
    21    10    28 1   
    22    11    12 1   
    23    12    29 1   
    24    12    30 1   
    25    12    31 1   
    26    14    15 ar  
    27    14    19 ar  
    28    15    16 ar  
    29    15    32 1   
    30    16    17 ar  
    31    16    22 1   
    32    17    18 ar  
    33    17    33 1   
    34    18    19 ar  
    35    19    34 1   
    36    21    36 1   
    37    21    37 1   
    38    21    38 1   
    39    22    23 3   
    40    23    24 1   
    41    24    39 1   
    42    24    40 1   
    43    24    41 1   
    44    35    42 1   
@<TRIPOS>SUBSTRUCTURE
     1 0V6         1 TEMP              0 ****  ****    0 ROOT
