@<TRIPOS>MOLECULE
0V6
   42    44     1     0     0
SMALL
abcg2


@<TRIPOS>ATOM
      1 C2           1.4050     0.6250    -0.4980 cc         1 0V6      -0.252300
      2 S1           0.3440    -0.6420    -0.9790 ss         1 0V6       0.275000
      3 C3           0.7130     1.5270     0.2570 cd         1 0V6       0.103000
      4 C4          -0.6490     1.2020     0.4700 cd         1 0V6      -0.116000
      5 C5          -1.0020     0.0360    -0.1440 cc         1 0V6      -0.150000
      6 C6           3.3300    -0.7290    -1.3730 c6         1 0V6      -0.174400
      7 C7           3.3800    -1.6740    -0.2020 c          1 0V6       0.576000
      8 N8           3.5920    -1.1050     1.0270 n          1 0V6      -0.337300
      9 C9           3.9200     0.2470     1.2060 c2         1 0V6       0.684800
     10 N10          3.7460     1.0440     0.1100 nu         1 0V6      -0.944400
     11 C11          2.8540     0.6570    -0.9610 c6         1 0V6       0.332500
     12 C12          2.9990     1.6410    -2.1180 c3         1 0V6      -0.092100
     13 CL           1.3850     2.9710     0.9130 cl         1 0V6      -0.180000
     14 C14         -2.3060    -0.6180    -0.1510 ca         1 0V6      -0.067000
     15 C15         -3.4740     0.1140     0.0380 ca         1 0V6      -0.044000
     16 C16         -4.7020    -0.5420     0.0390 ca         1 0V6      -0.008000
     17 C17         -4.7020    -1.9250    -0.1720 ca         1 0V6       0.359900
     18 N18         -3.5970    -2.6270    -0.3540 nb         1 0V6      -0.659000
     19 C19         -2.4330    -1.9960    -0.3370 ca         1 0V6       0.348900
     20 O21          3.2500    -2.8740    -0.3440 o          1 0V6      -0.529000
     21 C22          3.6390    -1.9600     2.2030 c3         1 0V6       0.096300
     22 C23         -5.9220     0.1640     0.2350 cg         1 0V6      -0.141000
     23 C24         -6.9590     0.7550     0.4030 c1         1 0V6      -0.096100
     24 C25         -8.2050     1.4710     0.6110 c3         1 0V6      -0.011000
     25 H1          -1.3180     1.8020     1.0700 ha         1 0V6       0.151000
     26 H2           4.3430    -0.6360    -1.7780 hc         1 0V6       0.089700
     27 H3           2.7240    -1.1720    -2.1640 hc         1 0V6       0.089700
     28 H4           3.8750     2.0300     0.2710 hn         1 0V6       0.489000
     29 H5           2.6920     2.6440    -1.8220 hc         1 0V6       0.053033
     30 H6           4.0350     1.6780    -2.4540 hc         1 0V6       0.053033
     31 H7           2.3740     1.3300    -2.9540 hc         1 0V6       0.053033
     32 H11         -3.4380     1.1870     0.1710 ha         1 0V6       0.129000
     33 H12         -5.6400    -2.4680    -0.1920 h4         1 0V6       0.029100
     34 H13         -1.5520    -2.6170    -0.4670 h4         1 0V6       0.027100
     35 H14          4.5300     1.6140     2.3600 hn         1 0V6       0.390400
     36 H15          4.6650    -2.1940     2.4830 h1         1 0V6       0.054700
     37 H16          3.1580    -1.4580     3.0360 h1         1 0V6       0.054700
     38 H17          3.1120    -2.8830     1.9920 h1         1 0V6       0.054700
     39 H18         -9.0570     0.7950     0.5530 hc         1 0V6       0.056367
     40 H19         -8.2200     1.9500     1.5910 hc         1 0V6       0.056367
     41 H20         -8.3390     2.2480    -0.1420 hc         1 0V6       0.056367
     42 N20          4.3740     0.6130     2.3370 n2         1 0V6      -0.864100
@<TRIPOS>BOND
     1     1     2 1   
     2     1     3 2   
     3     1    11 1   
     4     2     5 1   
     5     3     4 1   
     6     3    13 1   
     7     4     5 2   
     8     4    25 1   
     9     5    14 1   
    10     6     7 1   
    11     6    11 1   
    12     6    26 1   
    13     6    27 1   
    14     7     8 1   
    15     7    20 2   
    16     8     9 1   
    17     8    21 1   
    18     9    10 1   
    19     9    42 2   
    20    10    11 1   
    21    10    28 1   
    22    11    12 1   
    23    12    29 1   
    24    12    30 1   
    25    12    31 1   
    26    14    15 ar  
    27    14    19 ar  
    28    15    16 ar  
    29    15    32 1   
    30    16    17 ar  
    31    16    22 1   
    32    17    18 ar  
    33    17    33 1   
    34    18    19 ar  
    35    19    34 1   
    36    21    36 1   
    37    21    37 1   
    38    21    38 1   
    39    22    23 3   
    40    23    24 1   
    41    24    39 1   
    42    24    40 1   
    43    24    41 1   
    44    35    42 1   
@<TRIPOS>SUBSTRUCTURE
     1 0V6         1 TEMP              0 ****  ****    0 ROOT
