@<TRIPOS>MOLECULE
0V7
   26    26     1     0     0
SMALL
No Charge or Current Charge


@<TRIPOS>ATOM
      1 OAC         -4.7150     0.3010    -1.4490 o          1 0V7      -0.697200
      2 SAO         -4.0150     0.1170    -0.1690 s6         1 0V7       1.323600
      3 OAA         -4.0790     1.2780     0.7310 o          1 0V7      -0.697200
      4 OAB         -4.2670    -1.1770     0.4810 o          1 0V7      -0.697200
      5 CAJ         -2.2810     0.0340    -0.6490 c3         1 0V7      -0.359400
      6 CAI         -1.3700    -0.1570     0.5610 c3         1 0V7       0.195800
      7 NAL          0.0140    -0.2260     0.0740 n7         1 0V7      -0.865400
      8 CAK          1.0390    -0.3790     1.1220 c3         1 0V7       0.198100
      9 CAN          2.4360    -0.3970     0.5140 ca         1 0V7      -0.046300
     10 CAH          3.2090     0.7810     0.4650 ca         1 0V7      -0.156000
     11 CAM          4.4970     0.7560    -0.0940 ca         1 0V7       0.157000
     12 FAD          5.2320     1.8890    -0.1370 f          1 0V7      -0.193000
     13 CAF          5.0260    -0.4370    -0.6090 ca         1 0V7      -0.164000
     14 CAE          4.2610    -1.6150    -0.5660 ca         1 0V7      -0.096000
     15 CAG          2.9700    -1.5940    -0.0070 ca         1 0V7      -0.099000
     16 H1          -2.1890    -0.8070    -1.3430 h1         1 0V7       0.070700
     17 H2          -2.0550     0.9720    -1.1660 h1         1 0V7       0.070700
     18 H3          -1.4930     0.6840     1.2580 h1         1 0V7       0.041700
     19 H4          -1.6380    -1.0830     1.0900 h1         1 0V7       0.041700
     20 H5           0.2120     0.6440    -0.4320 hn         1 0V7       0.403000
     21 H7           0.9740     0.4460     1.8450 h1         1 0V7       0.036200
     22 H8           0.8800    -1.3130     1.6790 h1         1 0V7       0.036200
     23 H9           2.8140     1.7140     0.8600 ha         1 0V7       0.126000
     24 H10          6.0240    -0.4470    -1.0410 ha         1 0V7       0.120000
     25 H11          4.6650    -2.5430    -0.9660 ha         1 0V7       0.110000
     26 H12          2.3790    -2.5070     0.0210 ha         1 0V7       0.142000
@<TRIPOS>BOND
     1     1     2 1   
     2     2     3 1   
     3     2     4 1   
     4     2     5 1   
     5     5     6 1   
     6     5    16 1   
     7     5    17 1   
     8     6     7 1   
     9     6    18 1   
    10     6    19 1   
    11     7     8 1   
    12     7    20 1   
    13     8     9 1   
    14     8    21 1   
    15     8    22 1   
    16     9    10 ar  
    17     9    15 ar  
    18    10    11 ar  
    19    10    23 1   
    20    11    12 1   
    21    11    13 ar  
    22    13    14 ar  
    23    13    24 1   
    24    14    15 ar  
    25    14    25 1   
    26    15    26 1   
@<TRIPOS>SUBSTRUCTURE
     1 0V7         1 TEMP              0 ****  ****    0 ROOT
