@<TRIPOS>MOLECULE
0V7
   26    26     1     0     0
SMALL
abcg2


@<TRIPOS>ATOM
      1 OAC         -4.8230    -0.3720    -1.3070 o          1 0V7      -0.697200
      2 SAO         -4.0160    -0.1850    -0.0850 s6         1 0V7       1.323600
      3 OAA         -4.2370     1.1240     0.5610 o          1 0V7      -0.697200
      4 OAB         -4.1220    -1.3160     0.8590 o          1 0V7      -0.697200
      5 CAJ         -2.3050    -0.1790    -0.6460 c3         1 0V7      -0.359400
      6 CAI         -1.3090    -0.0090     0.4870 c3         1 0V7       0.195800
      7 NAL          0.0460    -0.0970    -0.0260 n7         1 0V7      -0.865400
      8 CAK          1.0470     0.0220     1.0150 c3         1 0V7       0.198100
      9 CAN          2.4350    -0.1860     0.4670 ca         1 0V7      -0.046300
     10 CAH          3.4630     0.6860     0.8080 ca         1 0V7      -0.156000
     11 CAM          4.7340     0.4570     0.3140 ca         1 0V7       0.157000
     12 FAD          5.7170     1.3110     0.6510 f          1 0V7      -0.193000
     13 CAF          5.0280    -0.6070    -0.5130 ca         1 0V7      -0.164000
     14 CAE          3.9940    -1.4720    -0.8530 ca         1 0V7      -0.096000
     15 CAG          2.7100    -1.2650    -0.3720 ca         1 0V7      -0.099000
     16 H1          -2.1300    -1.1230    -1.1660 h1         1 0V7       0.070700
     17 H2          -2.2080     0.6290    -1.3750 h1         1 0V7       0.070700
     18 H3          -1.5060     0.9350     1.0140 h1         1 0V7       0.041700
     19 H4          -1.4490    -0.8130     1.2150 h1         1 0V7       0.041700
     20 H5           0.1930     0.6400    -0.7070 hn         1 0V7       0.403000
     21 H7           1.0060     0.9810     1.5520 h1         1 0V7       0.036200
     22 H8           0.8450    -0.7510     1.7640 h1         1 0V7       0.036200
     23 H9           3.2760     1.5380     1.4510 ha         1 0V7       0.126000
     24 H10          6.0330    -0.7580    -0.8850 ha         1 0V7       0.120000
     25 H11          4.1980    -2.3150    -1.4990 ha         1 0V7       0.110000
     26 H12          1.9110    -1.9400    -0.6500 ha         1 0V7       0.142000
@<TRIPOS>BOND
     1     1     2 1   
     2     2     3 1   
     3     2     4 1   
     4     2     5 1   
     5     5     6 1   
     6     5    16 1   
     7     5    17 1   
     8     6     7 1   
     9     6    18 1   
    10     6    19 1   
    11     7     8 1   
    12     7    20 1   
    13     8     9 1   
    14     8    21 1   
    15     8    22 1   
    16     9    10 ar  
    17     9    15 ar  
    18    10    11 ar  
    19    10    23 1   
    20    11    12 1   
    21    11    13 ar  
    22    13    14 ar  
    23    13    24 1   
    24    14    15 ar  
    25    14    25 1   
    26    15    26 1   
@<TRIPOS>SUBSTRUCTURE
     1 0V7         1 TEMP              0 ****  ****    0 ROOT
