@<TRIPOS>MOLECULE
0V8
   26    26     1     0     0
SMALL
No Charge or Current Charge


@<TRIPOS>ATOM
      1 CAE          2.7440     2.5230    -0.6850 ca         1 0V8      -0.120000
      2 CAF          3.6980     1.4930    -0.6200 ca         1 0V8      -0.097000
      3 CAG          1.4650     2.3340    -0.1330 ca         1 0V8      -0.071000
      4 CAH          2.0900     0.0830     0.5500 ca         1 0V8      -0.091000
      5 CAI         -2.5990     0.3280     0.5200 c3         1 0V8       0.196800
      6 CAJ         -3.4570    -0.0380    -0.6890 c3         1 0V8      -0.360400
      7 CAM          3.3680     0.2750    -0.0030 ca         1 0V8      -0.019900
      8 CAN          1.1300     1.1140     0.4890 ca         1 0V8      -0.069300
      9 NAL         -1.2330     0.5760     0.0410 n7         1 0V8      -0.867400
     10 OAA         -5.8160    -0.6820    -1.4970 o          1 0V8      -0.696533
     11 OAB         -5.0750    -1.4760     0.7230 o          1 0V8      -0.696533
     12 OAC         -5.6110     0.9150     0.3790 o          1 0V8      -0.696533
     13 SAO         -5.1660    -0.3520    -0.2200 s6         1 0V8       1.321600
     14 Br           4.6640    -1.1290     0.0860 br         1 0V8      -0.129100
     15 H1           2.9950     3.4670    -1.1640 ha         1 0V8       0.111000
     16 H2           4.6870     1.6380    -1.0470 ha         1 0V8       0.118000
     17 H3           0.7280     3.1330    -0.1890 ha         1 0V8       0.143000
     18 H4           1.8450    -0.8640     1.0260 ha         1 0V8       0.125000
     19 H5          -3.0040     1.2240     1.0110 h1         1 0V8       0.041700
     20 H6          -2.6090    -0.4970     1.2480 h1         1 0V8       0.041700
     21 H7          -3.4770     0.7810    -1.4140 h1         1 0V8       0.070700
     22 H8          -3.0910    -0.9520    -1.1680 h1         1 0V8       0.070700
     23 H9          -0.2090     0.1150     1.8430 h1         1 0V8       0.036200
     24 H10         -0.5540     1.8350     1.6110 h1         1 0V8       0.036200
     25 H11         -0.9060    -0.2740    -0.4300 hn         1 0V8       0.403000
     26 CAK         -0.2550     0.9140     1.0900 c3         1 0V8       0.200100
@<TRIPOS>BOND
     1     1     2 ar  
     2     1     3 ar  
     3     1    15 1   
     4     2     7 ar  
     5     2    16 1   
     6     3     8 ar  
     7     3    17 1   
     8     4     7 ar  
     9     4     8 ar  
    10     4    18 1   
    11     5     6 1   
    12     5     9 1   
    13     5    19 1   
    14     5    20 1   
    15     6    13 1   
    16     6    21 1   
    17     6    22 1   
    18     7    14 1   
    19     8    26 1   
    20     9    25 1   
    21     9    26 1   
    22    10    13 1   
    23    11    13 1   
    24    12    13 1   
    25    23    26 1   
    26    24    26 1   
@<TRIPOS>SUBSTRUCTURE
     1 0V8         1 TEMP              0 ****  ****    0 ROOT
