@<TRIPOS>MOLECULE
0V8
   26    26     1     0     0
SMALL
abcg2


@<TRIPOS>ATOM
      1 CAE          2.5160     2.3330    -0.9320 ca         1 0V8      -0.120000
      2 CAF          3.6750     1.6890    -0.5150 ca         1 0V8      -0.097000
      3 CAG          1.2740     1.9280    -0.4700 ca         1 0V8      -0.071000
      4 CAH          2.3200     0.2130     0.8430 ca         1 0V8      -0.091000
      5 CAI         -2.5180     0.1660     0.4390 c3         1 0V8       0.196800
      6 CAJ         -3.5270     0.1560    -0.6940 c3         1 0V8      -0.360400
      7 CAM          3.5560     0.6320     0.3730 ca         1 0V8      -0.019900
      8 CAN          1.1650     0.8660     0.4250 ca         1 0V8      -0.069300
      9 NAL         -1.1870     0.4300    -0.0780 n7         1 0V8      -0.867400
     10 OAA         -6.0470    -0.0320    -1.3480 o          1 0V8      -0.696533
     11 OAB         -5.2900    -1.2410     0.6610 o          1 0V8      -0.696533
     12 OAC         -5.4760     1.2150     0.7000 o          1 0V8      -0.696533
     13 SAO         -5.2280     0.0110    -0.1200 s6         1 0V8       1.321600
     14 BR           5.1150    -0.2690     0.9530 br         1 0V8      -0.129100
     15 H1           2.5920     3.1600    -1.6250 ha         1 0V8       0.111000
     16 H2           4.6410     2.0120    -0.8800 ha         1 0V8       0.118000
     17 H3           0.3790     2.4340    -0.8090 ha         1 0V8       0.143000
     18 H4           2.2450    -0.6190     1.5330 ha         1 0V8       0.125000
     19 H5          -2.7680     0.9620     1.1450 h1         1 0V8       0.041700
     20 H6          -2.5780    -0.7800     0.9950 h1         1 0V8       0.041700
     21 H7          -3.4590     1.0790    -1.2740 h1         1 0V8       0.070700
     22 H8          -3.3460    -0.6810    -1.3730 h1         1 0V8       0.070700
     23 H9          -0.0810    -0.5150     1.4870 h1         1 0V8       0.036200
     24 H10         -0.4940     1.1700     1.7220 h1         1 0V8       0.036200
     25 H11         -0.9460    -0.2810    -0.7590 hn         1 0V8       0.403000
     26 CAK         -0.1790     0.4470     0.9610 c3         1 0V8       0.200100
@<TRIPOS>BOND
     1     1     2 ar  
     2     1     3 ar  
     3     1    15 1   
     4     2     7 ar  
     5     2    16 1   
     6     3     8 ar  
     7     3    17 1   
     8     4     7 ar  
     9     4     8 ar  
    10     4    18 1   
    11     5     6 1   
    12     5     9 1   
    13     5    19 1   
    14     5    20 1   
    15     6    13 1   
    16     6    21 1   
    17     6    22 1   
    18     7    14 1   
    19     8    26 1   
    20     9    25 1   
    21     9    26 1   
    22    10    13 1   
    23    11    13 1   
    24    12    13 1   
    25    23    26 1   
    26    24    26 1   
@<TRIPOS>SUBSTRUCTURE
     1 0V8         1 TEMP              0 ****  ****    0 ROOT
