@<TRIPOS>MOLECULE
0V9
  118   117     1     0     0
SMALL
No Charge or Current Charge


@<TRIPOS>ATOM
      1 C2          74.5690    54.0910     7.7730 c3         1 0V9       0.156300
      2 C1          74.4890    54.1260     6.2170 c3         1 0V9       0.209600
      3 N           75.9780    54.4810     2.7870 n8         1 0V9      -0.978200
      4 C3          75.1360    55.4030     8.3640 c3         1 0V9       0.164600
      5 C4          73.6920    55.6660     2.7210 c3         1 0V9       0.234600
      6 C5          74.8600    54.9820     1.9420 c3         1 0V9       0.137800
      7 C11         71.4290    52.5040     9.1270 c3         1 0V9      -0.123400
      8 C12         70.1730    52.3440     8.2390 c3         1 0V9      -0.076400
      9 C13         68.8810    52.1020     9.0490 c3         1 0V9      -0.074400
     10 C14         67.6180    52.0130     8.1510 c3         1 0V9      -0.075400
     11 C15         66.2670    52.0580     8.9140 c3         1 0V9      -0.070400
     12 C16         65.6360    53.4700     9.0570 c3         1 0V9      -0.068400
     13 C17         66.5050    54.4840     9.8240 c3         1 0V9      -0.050200
     14 C18         65.8660    55.8530     9.9610 c2         1 0V9      -0.233200
     15 C19         66.3020    56.9960     9.4000 c2         1 0V9      -0.205200
     16 C20         67.4920    57.1450     8.4670 c3         1 0V9      -0.053200
     17 C21         68.8520    57.1540     9.2040 c3         1 0V9      -0.068400
     18 C22         70.0560    57.1490     8.2290 c3         1 0V9      -0.089400
     19 C23         71.4420    56.9060     8.8770 c3         1 0V9      -0.061400
     20 C24         72.1480    58.1370     9.5020 c3         1 0V9      -0.081400
     21 C25         71.4550    58.7600    10.7300 c3         1 0V9      -0.083100
     22 C30         75.8110    56.2530    10.5180 c          1 0V9       0.593100
     23 C31         75.9770    55.8700    11.9910 c3         1 0V9      -0.136400
     24 C32         74.7210    56.2050    12.8330 c3         1 0V9      -0.066400
     25 C33         73.4310    55.4890    12.3650 c3         1 0V9      -0.083400
     26 C34         72.2330    55.7420    13.3040 c3         1 0V9      -0.072400
     27 C35         70.9140    55.1240    12.7930 c3         1 0V9      -0.075400
     28 C36         69.7400    55.3320    13.7730 c3         1 0V9      -0.076400
     29 C37         68.3940    54.8150    13.2250 c3         1 0V9      -0.073400
     30 C38         67.2410    54.9380    14.2460 c3         1 0V9      -0.075400
     31 C39         65.8870    54.4480    13.6910 c3         1 0V9      -0.074400
     32 C40         64.7400    54.5300    14.7220 c3         1 0V9      -0.074400
     33 C41         63.3870    54.0510    14.1520 c3         1 0V9      -0.073400
     34 C42         62.2360    54.1340    15.1780 c3         1 0V9      -0.075400
     35 C43         60.8830    53.6550    14.6080 c3         1 0V9      -0.075400
     36 C44         59.7310    53.7370    15.6330 c3         1 0V9      -0.075400
     37 C45         58.3810    53.2590    15.0640 c3         1 0V9      -0.087100
     38 O4          73.2810    51.6320     7.8200 o          1 0V9      -0.511000
     39 O5          76.0090    57.3770    10.0780 o          1 0V9      -0.498000
     40 O2          73.2620    53.8630     8.3610 os         1 0V9      -0.430100
     41 O3          75.3900    55.1890     9.7670 os         1 0V9      -0.447100
     42 O1P         71.7030    56.4630     4.8240 o          1 0V9      -0.816000
     43 O2P         71.5260    54.1000     5.5260 o          1 0V9      -0.816000
     44 O3P         73.7860    55.3020     5.7800 os         1 0V9      -0.599400
     45 O4P         73.0280    54.6920     3.5410 os         1 0V9      -0.591400
     46 P           72.4100    55.1550     4.9530 p5         1 0V9       1.396800
     47 H1          75.2570    53.2840     8.0560 h1         1 0V9       0.053700
     48 H2          74.0200    53.2060     5.8450 h1         1 0V9       0.043200
     49 H3          75.5120    54.1430     5.8200 h1         1 0V9       0.043200
     50 H4          76.7360    54.1500     2.1780 hn         1 0V9       0.376000
     51 H5          76.3940    55.2700     3.2940 hn         1 0V9       0.376000
     52 H7          76.0640    55.6690     7.8410 h1         1 0V9       0.070700
     53 H8          74.4140    56.2160     8.2110 h1         1 0V9       0.070700
     54 H9          74.0970    56.4920     3.3220 h1         1 0V9       0.017700
     55 H10         72.9850    56.0910     1.9980 h1         1 0V9       0.017700
     56 H11         75.2780    55.7120     1.2360 h1         1 0V9       0.017700
     57 H12         74.4630    54.1410     1.3570 h1         1 0V9       0.017700
     58 H13         71.5100    51.6310     9.7840 hc         1 0V9       0.060700
     59 H14         71.3030    53.4170     9.7210 hc         1 0V9       0.060700
     60 H15         70.0520    53.2510     7.6330 hc         1 0V9       0.066200
     61 H16         70.3220    51.5110     7.5410 hc         1 0V9       0.066200
     62 H17         68.9780    51.1680     9.6160 hc         1 0V9       0.031700
     63 H18         68.7770    52.8990     9.7920 hc         1 0V9       0.031700
     64 H19         67.6340    52.8160     7.4040 hc         1 0V9       0.041200
     65 H20         67.6700    51.0730     7.5880 hc         1 0V9       0.041200
     66 H21         65.5480    51.4290     8.3740 hc         1 0V9       0.028700
     67 H22         66.3840    51.6020     9.9060 hc         1 0V9       0.028700
     68 H23         65.4220    53.8680     8.0570 hc         1 0V9       0.031700
     69 H24         64.6710    53.3720     9.5680 hc         1 0V9       0.031700
     70 H25         66.7310    54.0760    10.8150 hc         1 0V9       0.053200
     71 H26         67.4610    54.5770     9.3030 hc         1 0V9       0.053200
     72 H27         64.9830    55.8700    10.6020 ha         1 0V9       0.153000
     73 H28         65.7650    57.9280     9.5860 ha         1 0V9       0.157000
     74 H29         67.4870    56.3270     7.7350 hc         1 0V9       0.050700
     75 H30         67.3930    58.0680     7.8820 hc         1 0V9       0.050700
     76 H31         68.8880    58.0330     9.8550 hc         1 0V9       0.025200
     77 H32         68.9200    56.2760     9.8570 hc         1 0V9       0.025200
     78 H33         69.8940    56.3470     7.4980 hc         1 0V9       0.069200
     79 H34         70.0740    58.0840     7.6560 hc         1 0V9       0.069200
     80 H35         71.3670    56.1030     9.6190 hc         1 0V9       0.035200
     81 H36         72.1030    56.5200     8.0920 hc         1 0V9       0.035200
     82 H37         73.1550    57.8280     9.8050 hc         1 0V9       0.049200
     83 H38         72.2830    58.9090     8.7350 hc         1 0V9       0.049200
     84 H39         72.1480    59.4280    11.2550 hc         1 0V9       0.018700
     85 H40         70.5870    59.3570    10.4280 hc         1 0V9       0.018700
     86 H41         71.1270    57.9870    11.4330 hc         1 0V9       0.018700
     87 H42         76.1440    54.7890    12.0670 hc         1 0V9       0.063200
     88 H43         76.8320    56.4160    12.4070 hc         1 0V9       0.063200
     89 H44         74.9210    55.9340    13.8770 hc         1 0V9       0.043200
     90 H45         74.5560    57.2900    12.8160 hc         1 0V9       0.043200
     91 H46         73.1710    55.8280    11.3550 hc         1 0V9       0.052200
     92 H47         73.6150    54.4090    12.3000 hc         1 0V9       0.052200
     93 H48         72.4640    55.3310    14.2950 hc         1 0V9       0.034700
     94 H49         72.0960    56.8230    13.4320 hc         1 0V9       0.034700
     95 H50         70.6570    55.5690    11.8250 hc         1 0V9       0.040700
     96 H51         71.0560    54.0490    12.6230 hc         1 0V9       0.040700
     97 H52         69.9680    54.8220    14.7170 hc         1 0V9       0.038200
     98 H53         69.6440    56.4010    14.0010 hc         1 0V9       0.038200
     99 H54         68.1390    55.3820    12.3210 hc         1 0V9       0.037200
    100 H55         68.5020    53.7640    12.9270 hc         1 0V9       0.037200
    101 H56         67.4940    54.3590    15.1430 hc         1 0V9       0.038700
    102 H57         67.1450    55.9860    14.5570 hc         1 0V9       0.038700
    103 H58         65.9900    53.4110    13.3480 hc         1 0V9       0.037700
    104 H59         65.6210    55.0520    12.8170 hc         1 0V9       0.037700
    105 H60         64.6400    55.5670    15.0670 hc         1 0V9       0.038700
    106 H61         64.9990    53.9230    15.5980 hc         1 0V9       0.038700
    107 H62         63.4880    53.0150    13.8070 hc         1 0V9       0.035200
    108 H63         63.1310    54.6580    13.2740 hc         1 0V9       0.035200
    109 H64         62.1350    55.1700    15.5230 hc         1 0V9       0.037700
    110 H65         62.4920    53.5270    16.0560 hc         1 0V9       0.037700
    111 H66         60.9840    52.6180    14.2630 hc         1 0V9       0.035200
    112 H67         60.6270    54.2610    13.7300 hc         1 0V9       0.035200
    113 H68         59.6250    54.7730    15.9790 hc         1 0V9       0.037200
    114 H69         59.9820    53.1300    16.5120 hc         1 0V9       0.037200
    115 H70         57.5970    53.3360    15.8270 hc         1 0V9       0.028700
    116 H71         58.0850    53.8710    14.2040 hc         1 0V9       0.028700
    117 H72         58.4450    52.2130    14.7410 hc         1 0V9       0.028700
    118 C10         72.7100    52.6100     8.2880 c          1 0V9       0.620100
@<TRIPOS>BOND
     1     1     2 1   
     2     1     4 1   
     3     1    40 1   
     4     1    47 1   
     5     2    44 1   
     6     2    48 1   
     7     2    49 1   
     8     3     6 1   
     9     3    50 1   
    10     3    51 1   
    11     4    41 1   
    12     4    52 1   
    13     4    53 1   
    14     5     6 1   
    15     5    45 1   
    16     5    54 1   
    17     5    55 1   
    18     6    56 1   
    19     6    57 1   
    20     7     8 1   
    21     7    58 1   
    22     7    59 1   
    23     7   118 1   
    24     8     9 1   
    25     8    60 1   
    26     8    61 1   
    27     9    10 1   
    28     9    62 1   
    29     9    63 1   
    30    10    11 1   
    31    10    64 1   
    32    10    65 1   
    33    11    12 1   
    34    11    66 1   
    35    11    67 1   
    36    12    13 1   
    37    12    68 1   
    38    12    69 1   
    39    13    14 1   
    40    13    70 1   
    41    13    71 1   
    42    14    15 2   
    43    14    72 1   
    44    15    16 1   
    45    15    73 1   
    46    16    17 1   
    47    16    74 1   
    48    16    75 1   
    49    17    18 1   
    50    17    76 1   
    51    17    77 1   
    52    18    19 1   
    53    18    78 1   
    54    18    79 1   
    55    19    20 1   
    56    19    80 1   
    57    19    81 1   
    58    20    21 1   
    59    20    82 1   
    60    20    83 1   
    61    21    84 1   
    62    21    85 1   
    63    21    86 1   
    64    22    23 1   
    65    22    39 2   
    66    22    41 1   
    67    23    24 1   
    68    23    87 1   
    69    23    88 1   
    70    24    25 1   
    71    24    89 1   
    72    24    90 1   
    73    25    26 1   
    74    25    91 1   
    75    25    92 1   
    76    26    27 1   
    77    26    93 1   
    78    26    94 1   
    79    27    28 1   
    80    27    95 1   
    81    27    96 1   
    82    28    29 1   
    83    28    97 1   
    84    28    98 1   
    85    29    30 1   
    86    29    99 1   
    87    29   100 1   
    88    30    31 1   
    89    30   101 1   
    90    30   102 1   
    91    31    32 1   
    92    31   103 1   
    93    31   104 1   
    94    32    33 1   
    95    32   105 1   
    96    32   106 1   
    97    33    34 1   
    98    33   107 1   
    99    33   108 1   
   100    34    35 1   
   101    34   109 1   
   102    34   110 1   
   103    35    36 1   
   104    35   111 1   
   105    35   112 1   
   106    36    37 1   
   107    36   113 1   
   108    36   114 1   
   109    37   115 1   
   110    37   116 1   
   111    37   117 1   
   112    38   118 2   
   113    40   118 1   
   114    42    46 1   
   115    43    46 1   
   116    44    46 1   
   117    45    46 1   
@<TRIPOS>SUBSTRUCTURE
     1 0V9         1 TEMP              0 ****  ****    0 ROOT
