@<TRIPOS>MOLECULE
0V9
  118   117     1     0     0
SMALL
abcg2


@<TRIPOS>ATOM
      1 C2          74.4810    54.5470     7.5080 c3         1 0V9       0.156300
      2 C1          73.9800    55.1520     6.2070 c3         1 0V9       0.209600
      3 N           74.2900    56.3850     2.6320 n8         1 0V9      -0.978200
      4 C3          75.2850    55.5480     8.3050 c3         1 0V9       0.164600
      5 C4          72.4370    57.6010     3.7020 c3         1 0V9       0.234600
      6 C5          73.1190    57.2170     2.4050 c3         1 0V9       0.137800
      7 C11         71.6810    52.6850     9.0600 c3         1 0V9      -0.123400
      8 C12         70.5950    51.8120     8.4470 c3         1 0V9      -0.076400
      9 C13         69.5150    51.4270     9.4490 c3         1 0V9      -0.074400
     10 C14         68.3800    50.6430     8.7910 c3         1 0V9      -0.075400
     11 C15         67.1930    50.3140     9.7060 c3         1 0V9      -0.070400
     12 C16         66.0630    51.3420     9.6830 c3         1 0V9      -0.068400
     13 C17         66.4990    52.7410    10.1010 c3         1 0V9      -0.050200
     14 C18         65.3830    53.7310    10.2080 c2         1 0V9      -0.233200
     15 C19         65.4230    54.9860     9.7570 c2         1 0V9      -0.205200
     16 C20         66.5950    55.5990     9.0410 c3         1 0V9      -0.053200
     17 C21         67.7980    55.8890     9.9440 c3         1 0V9      -0.068400
     18 C22         69.0420    56.2380     9.1350 c3         1 0V9      -0.089400
     19 C23         70.3240    56.4160     9.9560 c3         1 0V9      -0.061400
     20 C24         70.6560    57.8500    10.3570 c3         1 0V9      -0.081400
     21 C25         69.5890    58.5500    11.1860 c3         1 0V9      -0.083100
     22 C30         76.3210    55.6280    10.4210 c          1 0V9       0.593100
     23 C31         76.5840    54.8590    11.6860 c3         1 0V9      -0.136400
     24 C32         75.4960    55.1680    12.7240 c3         1 0V9      -0.066400
     25 C33         74.1390    54.5510    12.4030 c3         1 0V9      -0.083400
     26 C34         73.0320    55.0700    13.3100 c3         1 0V9      -0.072400
     27 C35         71.7000    54.3590    13.0960 c3         1 0V9      -0.075400
     28 C36         70.5250    55.1080    13.7090 c3         1 0V9      -0.076400
     29 C37         69.1860    54.4030    13.5280 c3         1 0V9      -0.073400
     30 C38         68.0000    55.3050    13.8420 c3         1 0V9      -0.075400
     31 C39         66.6490    54.6090    13.7350 c3         1 0V9      -0.074400
     32 C40         65.4810    55.5860    13.6880 c3         1 0V9      -0.074400
     33 C41         64.1200    54.9020    13.6810 c3         1 0V9      -0.073400
     34 C42         62.9760    55.8390    13.3160 c3         1 0V9      -0.075400
     35 C43         61.6100    55.1660    13.3510 c3         1 0V9      -0.075400
     36 C44         60.4710    56.0910    12.9370 c3         1 0V9      -0.075400
     37 C45         59.1070    55.4180    13.0000 c3         1 0V9      -0.087100
     38 O4          73.1600    52.2210     7.2260 o          1 0V9      -0.511000
     39 O5          76.5400    56.8070    10.2880 o          1 0V9      -0.498000
     40 O2          73.3900    54.1420     8.3420 os         1 0V9      -0.430100
     41 O3          75.7650    54.8820     9.4720 os         1 0V9      -0.447100
     42 O1P         71.1750    57.7390     6.4420 o          1 0V9      -0.816000
     43 O2P         70.9320    55.1320     6.2040 o          1 0V9      -0.816000
     44 O3P         73.2150    56.3070     6.4640 os         1 0V9      -0.599400
     45 O4P         71.8660    56.4580     4.3140 os         1 0V9      -0.591400
     46 P           71.6560    56.4150     5.9380 p5         1 0V9       1.396800
     47 H1          75.1100    53.6870     7.2600 h1         1 0V9       0.053700
     48 H2          73.4240    54.3970     5.6470 h1         1 0V9       0.043200
     49 H3          74.8510    55.4190     5.5990 h1         1 0V9       0.043200
     50 H4          74.6630    56.0760     1.7440 hn         1 0V9       0.376000
     51 H5          75.0200    56.9410     3.0590 hn         1 0V9       0.376000
     52 H7          76.1210    55.9000     7.6950 h1         1 0V9       0.070700
     53 H8          74.6780    56.4110     8.5840 h1         1 0V9       0.070700
     54 H9          73.1660    58.0920     4.3570 h1         1 0V9       0.017700
     55 H10         71.6580    58.3400     3.4860 h1         1 0V9       0.017700
     56 H11         73.3390    58.1520     1.8710 h1         1 0V9       0.017700
     57 H12         72.4140    56.6660     1.7780 h1         1 0V9       0.017700
     58 H13         72.1220    52.1840     9.9300 hc         1 0V9       0.060700
     59 H14         71.2590    53.6200     9.4340 hc         1 0V9       0.060700
     60 H15         70.1380    52.3510     7.6110 hc         1 0V9       0.066200
     61 H16         71.0370    50.9060     8.0260 hc         1 0V9       0.066200
     62 H17         69.9550    50.8210    10.2480 hc         1 0V9       0.031700
     63 H18         69.1350    52.3300     9.9350 hc         1 0V9       0.031700
     64 H19         68.0200    51.1960     7.9160 hc         1 0V9       0.041200
     65 H20         68.8010    49.7140     8.3970 hc         1 0V9       0.041200
     66 H21         66.7730    49.3480     9.4140 hc         1 0V9       0.028700
     67 H22         67.5470    50.1840    10.7350 hc         1 0V9       0.028700
     68 H23         65.6350    51.3850     8.6760 hc         1 0V9       0.031700
     69 H24         65.2570    51.0020    10.3410 hc         1 0V9       0.031700
     70 H25         67.0040    52.6710    11.0730 hc         1 0V9       0.053200
     71 H26         67.2520    53.1110     9.4040 hc         1 0V9       0.053200
     72 H27         64.4870    53.3940    10.7230 ha         1 0V9       0.153000
     73 H28         64.5580    55.6200     9.9270 ha         1 0V9       0.157000
     74 H29         66.9240    54.9340     8.2350 hc         1 0V9       0.050700
     75 H30         66.2830    56.5250     8.5500 hc         1 0V9       0.050700
     76 H31         67.5490    56.6840    10.6520 hc         1 0V9       0.025200
     77 H32         68.0190    55.0070    10.5530 hc         1 0V9       0.025200
     78 H33         69.2020    55.4340     8.4120 hc         1 0V9       0.069200
     79 H34         68.8600    57.1350     8.5310 hc         1 0V9       0.069200
     80 H35         70.2730    55.7880    10.8520 hc         1 0V9       0.035200
     81 H36         71.1710    56.0330     9.3790 hc         1 0V9       0.035200
     82 H37         71.5970    57.8440    10.9160 hc         1 0V9       0.049200
     83 H38         70.8500    58.4300     9.4500 hc         1 0V9       0.049200
     84 H39         69.9210    59.5400    11.4990 hc         1 0V9       0.018700
     85 H40         68.6630    58.6810    10.6250 hc         1 0V9       0.018700
     86 H41         69.3490    57.9810    12.0880 hc         1 0V9       0.018700
     87 H42         76.6260    53.7860    11.4940 hc         1 0V9       0.063200
     88 H43         77.5550    55.1690    12.0750 hc         1 0V9       0.063200
     89 H44         75.8360    54.8000    13.6940 hc         1 0V9       0.043200
     90 H45         75.4000    56.2530    12.8290 hc         1 0V9       0.043200
     91 H46         73.8510    54.7560    11.3670 hc         1 0V9       0.052200
     92 H47         74.2130    53.4620    12.4830 hc         1 0V9       0.052200
     93 H48         73.3320    54.9810    14.3600 hc         1 0V9       0.034700
     94 H49         72.9030    56.1420    13.1220 hc         1 0V9       0.034700
     95 H50         71.5220    54.2430    12.0210 hc         1 0V9       0.040700
     96 H51         71.7560    53.3440    13.5020 hc         1 0V9       0.040700
     97 H52         70.7060    55.2800    14.7750 hc         1 0V9       0.038200
     98 H53         70.4700    56.1020    13.2500 hc         1 0V9       0.038200
     99 H54         69.0960    54.0530    12.4920 hc         1 0V9       0.037200
    100 H55         69.1540    53.5040    14.1530 hc         1 0V9       0.037200
    101 H56         68.1120    55.7320    14.8440 hc         1 0V9       0.038700
    102 H57         68.0210    56.1560    13.1510 hc         1 0V9       0.038700
    103 H58         66.5240    53.9130    14.5720 hc         1 0V9       0.037700
    104 H59         66.6240    53.9980    12.8270 hc         1 0V9       0.037700
    105 H60         65.5830    56.2010    12.7850 hc         1 0V9       0.038700
    106 H61         65.5400    56.2790    14.5340 hc         1 0V9       0.038700
    107 H62         63.9310    54.4540    14.6620 hc         1 0V9       0.035200
    108 H63         64.1380    54.0690    12.9690 hc         1 0V9       0.035200
    109 H64         63.1560    56.2430    12.3130 hc         1 0V9       0.037700
    110 H65         62.9740    56.7000    13.9930 hc         1 0V9       0.037700
    111 H66         61.4180    54.7850    14.3590 hc         1 0V9       0.035200
    112 H67         61.6200    54.2900    12.6930 hc         1 0V9       0.035200
    113 H68         60.6540    56.4560    11.9220 hc         1 0V9       0.037200
    114 H69         60.4720    56.9760    13.5810 hc         1 0V9       0.037200
    115 H70         58.3100    56.0960    12.6940 hc         1 0V9       0.028700
    116 H71         59.0680    54.5450    12.3450 hc         1 0V9       0.028700
    117 H72         58.8820    55.0780    14.0120 hc         1 0V9       0.028700
    118 C10         72.8030    52.9740     8.0980 c          1 0V9       0.620100
@<TRIPOS>BOND
     1     1     2 1   
     2     1     4 1   
     3     1    40 1   
     4     1    47 1   
     5     2    44 1   
     6     2    48 1   
     7     2    49 1   
     8     3     6 1   
     9     3    50 1   
    10     3    51 1   
    11     4    41 1   
    12     4    52 1   
    13     4    53 1   
    14     5     6 1   
    15     5    45 1   
    16     5    54 1   
    17     5    55 1   
    18     6    56 1   
    19     6    57 1   
    20     7     8 1   
    21     7    58 1   
    22     7    59 1   
    23     7   118 1   
    24     8     9 1   
    25     8    60 1   
    26     8    61 1   
    27     9    10 1   
    28     9    62 1   
    29     9    63 1   
    30    10    11 1   
    31    10    64 1   
    32    10    65 1   
    33    11    12 1   
    34    11    66 1   
    35    11    67 1   
    36    12    13 1   
    37    12    68 1   
    38    12    69 1   
    39    13    14 1   
    40    13    70 1   
    41    13    71 1   
    42    14    15 2   
    43    14    72 1   
    44    15    16 1   
    45    15    73 1   
    46    16    17 1   
    47    16    74 1   
    48    16    75 1   
    49    17    18 1   
    50    17    76 1   
    51    17    77 1   
    52    18    19 1   
    53    18    78 1   
    54    18    79 1   
    55    19    20 1   
    56    19    80 1   
    57    19    81 1   
    58    20    21 1   
    59    20    82 1   
    60    20    83 1   
    61    21    84 1   
    62    21    85 1   
    63    21    86 1   
    64    22    23 1   
    65    22    39 2   
    66    22    41 1   
    67    23    24 1   
    68    23    87 1   
    69    23    88 1   
    70    24    25 1   
    71    24    89 1   
    72    24    90 1   
    73    25    26 1   
    74    25    91 1   
    75    25    92 1   
    76    26    27 1   
    77    26    93 1   
    78    26    94 1   
    79    27    28 1   
    80    27    95 1   
    81    27    96 1   
    82    28    29 1   
    83    28    97 1   
    84    28    98 1   
    85    29    30 1   
    86    29    99 1   
    87    29   100 1   
    88    30    31 1   
    89    30   101 1   
    90    30   102 1   
    91    31    32 1   
    92    31   103 1   
    93    31   104 1   
    94    32    33 1   
    95    32   105 1   
    96    32   106 1   
    97    33    34 1   
    98    33   107 1   
    99    33   108 1   
   100    34    35 1   
   101    34   109 1   
   102    34   110 1   
   103    35    36 1   
   104    35   111 1   
   105    35   112 1   
   106    36    37 1   
   107    36   113 1   
   108    36   114 1   
   109    37   115 1   
   110    37   116 1   
   111    37   117 1   
   112    38   118 2   
   113    40   118 1   
   114    42    46 1   
   115    43    46 1   
   116    44    46 1   
   117    45    46 1   
@<TRIPOS>SUBSTRUCTURE
     1 0V9         1 TEMP              0 ****  ****    0 ROOT
