@<TRIPOS>MOLECULE
0VA
   49    51     1     0     0
SMALL
bcc


@<TRIPOS>ATOM
      1 C01         -4.3100     1.5220    -1.5520 ca         1 0VA      -0.053500
      2 C02         -3.2000     1.4310     0.5640 ca         1 0VA      -0.053500
      3 C03         -4.2160     2.8980    -1.5480 ca         1 0VA      -0.196500
      4 C04         -3.1030     2.8140     0.5860 ca         1 0VA      -0.196500
      5 C05          3.7120     0.9520     1.1880 ca         1 0VA      -0.053000
      6 C06          3.8230    -1.2690     0.3280 ca         1 0VA      -0.053000
      7 C07         -3.7940     0.7610    -0.5000 ca         1 0VA      -0.176500
      8 C08         -2.9530    -1.6290    -0.0100 cc         1 0VA      -0.308900
      9 C09          3.3020    -0.3710     1.2530 ca         1 0VA      -0.151300
     10 C10          5.1670     0.4840    -0.7200 ca         1 0VA       0.200600
     11 C11         -3.6070     3.5600    -0.4770 ca         1 0VA       0.159100
     12 C12          4.6220     1.3600     0.2290 ca         1 0VA      -0.053600
     13 C13          4.7280    -0.8480    -0.6250 ca         1 0VA      -0.053600
     14 C14         -3.9260    -0.7020    -0.5050 cc         1 0VA       0.485800
     15 C15         -3.3960    -2.9200    -0.1240 cd         1 0VA      -0.043400
     16 C17          0.0040    -1.6220     2.3190 c2         1 0VA       0.698800
     17 C18         -2.7250    -4.1970     0.2540 c3         1 0VA      -0.031800
     18 C19         -2.9350     5.6170     0.4950 c3         1 0VA       0.124700
     19 C20          2.2950    -0.8230     2.2720 c3         1 0VA       0.295100
     20 N21         -5.0240    -1.2450    -0.9650 nd         1 0VA      -0.515100
     21 N22         -1.2250    -1.7270     1.6350 ns         1 0VA      -0.552400
     22 N23          6.0190     0.9010    -1.6990 nv         1 0VA      -0.821200
     23 N24          0.1520    -2.0450     3.5130 n2         1 0VA      -0.904100
     24 N25          1.0250    -1.0740     1.6260 nu         1 0VA      -0.863200
     25 O26         -0.8550    -0.5990    -0.3170 o          1 0VA      -0.564100
     26 O27         -3.5550     4.8990    -0.5560 os         1 0VA      -0.314900
     27 S28         -4.9450    -2.8860    -0.8380 ss         1 0VA       0.203200
     28 CL1          5.1070     3.0260     0.1910 cl         1 0VA      -0.113400
     29 CL2          5.3510    -2.0030    -1.7600 cl         1 0VA      -0.113400
     30 H1          -4.7790     1.0270    -2.3920 ha         1 0VA       0.136500
     31 H2          -2.8230     0.8830     1.4190 ha         1 0VA       0.136500
     32 H3          -4.6110     3.4730    -2.3760 ha         1 0VA       0.143000
     33 H4          -2.6390     3.2860     1.4410 ha         1 0VA       0.143000
     34 H6           3.5220    -2.3090     0.3500 ha         1 0VA       0.152000
     35 H7          -2.8660    -4.4050     1.3160 hc         1 0VA       0.057367
     36 H8          -3.1300    -5.0400    -0.3010 hc         1 0VA       0.057367
     37 H9          -1.6550    -4.1510     0.0610 hc         1 0VA       0.057367
     38 H10         -2.9850     6.6680     0.2220 h1         1 0VA       0.042700
     39 H11         -3.4530     5.4760     1.4460 h1         1 0VA       0.042700
     40 H12         -1.8870     5.3330     0.6170 h1         1 0VA       0.042700
     41 H13          2.6330    -1.7410     2.7560 h1         1 0VA       0.057200
     42 H14          2.1980    -0.0690     3.0610 h1         1 0VA       0.057200
     43 H15         -1.9600    -2.1660     2.1700 hn         1 0VA       0.323500
     44 H16          6.6040     0.2030    -2.1290 hn         1 0VA       0.419300
     45 H17          6.4950     1.7760    -1.5510 hn         1 0VA       0.419300
     46 H18         -0.6930    -2.4670     3.8790 hn         1 0VA       0.385400
     47 H19          0.8090    -0.5690     0.7810 hn         1 0VA       0.470800
     48 C16         -1.5770    -1.2590     0.4070 c          1 0VA       0.723700
     49 H5           3.3220     1.6760     1.8920 ha         1 0VA       0.152000
@<TRIPOS>BOND
     1     1     3 ar  
     2     1     7 ar  
     3     1    30 1   
     4     2     4 ar  
     5     2     7 ar  
     6     2    31 1   
     7     3    11 ar  
     8     3    32 1   
     9     4    11 ar  
    10     4    33 1   
    11     5     9 ar  
    12     5    12 ar  
    13     5    49 1   
    14     6     9 ar  
    15     6    13 ar  
    16     6    34 1   
    17     7    14 1   
    18     8    14 1   
    19     8    15 2   
    20     8    48 1   
    21     9    19 1   
    22    10    12 ar  
    23    10    13 ar  
    24    10    22 1   
    25    11    26 1   
    26    12    28 1   
    27    13    29 1   
    28    14    20 2   
    29    15    17 1   
    30    15    27 1   
    31    16    21 1   
    32    16    23 2   
    33    16    24 1   
    34    17    35 1   
    35    17    36 1   
    36    17    37 1   
    37    18    26 1   
    38    18    38 1   
    39    18    39 1   
    40    18    40 1   
    41    19    24 1   
    42    19    41 1   
    43    19    42 1   
    44    20    27 1   
    45    21    43 1   
    46    21    48 1   
    47    22    44 1   
    48    22    45 1   
    49    23    46 1   
    50    24    47 1   
    51    25    48 2   
@<TRIPOS>SUBSTRUCTURE
     1 0VA         1 TEMP              0 ****  ****    0 ROOT
