@<TRIPOS>MOLECULE
0VA
   49    51     1     0     0
SMALL
No Charge or Current Charge


@<TRIPOS>ATOM
      1 C01         -3.9830     1.5310    -1.7310 ca         1 0VA      -0.035500
      2 C02         -2.9780     1.5550     0.4740 ca         1 0VA      -0.035500
      3 C03         -3.8490     2.9280    -1.8050 ca         1 0VA      -0.178500
      4 C04         -2.8460     2.9530     0.4010 ca         1 0VA      -0.178500
      5 C05          3.1930     0.8180     1.1960 ca         1 0VA      -0.035000
      6 C06          4.0580    -1.2520     0.2590 ca         1 0VA      -0.035000
      7 C07         -3.5060     0.8130    -0.6090 ca         1 0VA      -0.176500
      8 C08         -2.9280    -1.5860     0.2240 cc         1 0VA      -0.243600
      9 C09          3.2520    -0.5890     1.2040 ca         1 0VA      -0.151300
     10 C10          4.7460     0.8960    -0.6950 ca         1 0VA       0.339000
     11 C11         -3.2720     3.6460    -0.7500 ca         1 0VA       0.159100
     12 C12          3.9320     1.5570     0.2570 ca         1 0VA       0.038000
     13 C13          4.8010    -0.5190    -0.6830 ca         1 0VA       0.038000
     14 C14         -3.7220    -0.6480    -0.5230 cc         1 0VA       0.420500
     15 C15         -3.5660    -2.8130     0.2830 cd         1 0VA      -0.188300
     16 C17          0.1000    -2.2090     2.3350 c2         1 0VA       0.698800
     17 C18         -3.1440    -4.1560     0.8420 c3         1 0VA      -0.031800
     18 C19         -2.5890     5.8400     0.1480 c3         1 0VA       0.147900
     19 C20          2.4440    -1.3850     2.2150 c3         1 0VA       0.295100
     20 N21         -4.8540    -1.0980    -1.0420 nd         1 0VA      -0.515100
     21 N22         -1.0940    -2.1810     1.6640 ns         1 0VA      -0.485400
     22 N23          5.4770     1.6210    -1.6220 nv         1 0VA      -1.070000
     23 N24          0.3040    -2.8790     3.3840 n2         1 0VA      -0.904100
     24 N25          1.1280    -1.6710     1.6460 nu         1 0VA      -0.918400
     25 O26         -0.8730    -0.3530     0.3450 o          1 0VA      -0.564100
     26 O27         -3.1670     5.0160    -0.8790 os         1 0VA      -0.338100
     27 S28         -5.0650    -2.7090    -0.6350 ss         1 0VA       0.348100
     28 Cl1          3.8220     3.3230     0.2950 cl         1 0VA      -0.205000
     29 Cl2          5.8000    -1.4050    -1.8450 cl         1 0VA      -0.205000
     30 H1          -4.4400     1.0050    -2.5680 ha         1 0VA       0.118500
     31 H2          -2.6940     1.0590     1.3980 ha         1 0VA       0.118500
     32 H3          -4.1990     3.4580    -2.6870 ha         1 0VA       0.125000
     33 H4          -2.4240     3.4790     1.2520 ha         1 0VA       0.125000
     34 H6           4.1060    -2.3390     0.2520 ha         1 0VA       0.134000
     35 H7          -3.1580    -4.1580     1.9380 hc         1 0VA       0.057367
     36 H8          -3.8240    -4.9510     0.5130 hc         1 0VA       0.057367
     37 H9          -2.1390    -4.4370     0.5020 hc         1 0VA       0.057367
     38 H10         -2.5980     6.8930    -0.1600 h1         1 0VA       0.042700
     39 H11         -3.1570     5.7560     1.0830 h1         1 0VA       0.042700
     40 H12         -1.5480     5.5510     0.3410 h1         1 0VA       0.042700
     41 H13          2.9690    -2.3190     2.4620 h1         1 0VA       0.057200
     42 H14          2.3430    -0.8030     3.1420 h1         1 0VA       0.057200
     43 H15         -1.7630    -2.8770     1.9380 hn         1 0VA       0.323500
     44 H16          6.1770     1.1440    -2.1890 hn         1 0VA       0.474500
     45 H17          5.5570     2.6310    -1.5180 hn         1 0VA       0.474500
     46 H18         -0.5880    -3.2730     3.7040 hn         1 0VA       0.385400
     47 H19          0.8050    -1.0270     0.9250 hn         1 0VA       0.526000
     48 C16         -1.5560    -1.2910     0.7300 c          1 0VA       0.656700
     49 H5           2.5700     1.3420     1.9190 ha         1 0VA       0.134000
@<TRIPOS>BOND
     1     1     3 ar  
     2     1     7 ar  
     3     1    30 1   
     4     2     4 ar  
     5     2     7 ar  
     6     2    31 1   
     7     3    11 ar  
     8     3    32 1   
     9     4    11 ar  
    10     4    33 1   
    11     5     9 ar  
    12     5    12 ar  
    13     5    49 1   
    14     6     9 ar  
    15     6    13 ar  
    16     6    34 1   
    17     7    14 1   
    18     8    14 1   
    19     8    15 2   
    20     8    48 1   
    21     9    19 1   
    22    10    12 ar  
    23    10    13 ar  
    24    10    22 1   
    25    11    26 1   
    26    12    28 1   
    27    13    29 1   
    28    14    20 2   
    29    15    17 1   
    30    15    27 1   
    31    16    21 1   
    32    16    23 2   
    33    16    24 1   
    34    17    35 1   
    35    17    36 1   
    36    17    37 1   
    37    18    26 1   
    38    18    38 1   
    39    18    39 1   
    40    18    40 1   
    41    19    24 1   
    42    19    41 1   
    43    19    42 1   
    44    20    27 1   
    45    21    43 1   
    46    21    48 1   
    47    22    44 1   
    48    22    45 1   
    49    23    46 1   
    50    24    47 1   
    51    25    48 2   
@<TRIPOS>SUBSTRUCTURE
     1 0VA         1 TEMP              0 ****  ****    0 ROOT
