@<TRIPOS>MOLECULE
0VB
   57    59     1     0     0
SMALL
No Charge or Current Charge


@<TRIPOS>ATOM
      1 C01          3.3440     2.2470     1.6150 ca         1 0VB      -0.035000
      2 C02          1.9110     1.4860    -0.1850 ca         1 0VB      -0.035000
      3 C03          2.4110     3.2510     1.9290 ca         1 0VB      -0.178500
      4 C04          0.9800     2.4910     0.1270 ca         1 0VB      -0.178500
      5 C05         -3.0080    -2.5320    -0.2680 ca         1 0VB      -0.083000
      6 C06         -2.0460    -0.7110    -1.5550 ca         1 0VB      -0.090000
      7 C07          3.0870     1.3140     0.5840 ca         1 0VB      -0.176500
      8 C08          3.8580    -0.9720    -0.3880 cc         1 0VB      -0.243600
      9 C09         -2.0920    -2.0800    -1.2360 ca         1 0VB      -0.097300
     10 C10         -3.8850    -1.6320     0.3700 ca         1 0VB      -0.077300
     11 C11         -3.8540    -0.2600     0.0280 ca         1 0VB      -0.032000
     12 C12          1.2210     3.3710     1.2000 ca         1 0VB       0.159100
     13 C13         -2.9150     0.1970    -0.9290 ca         1 0VB       0.129000
     14 C14          4.1060     0.3000     0.2310 cc         1 0VB       0.420500
     15 C15          5.0460    -1.5410    -0.8110 cd         1 0VB      -0.190300
     16 C17         -5.6640     1.5160     0.1420 c          1 0VB       0.607100
     17 C18          1.3280    -3.4110    -1.7010 c2         1 0VB       0.697800
     18 C19         -4.8660    -2.1570     1.4150 c3         1 0VB      -0.045800
     19 C20          5.3680    -2.8900    -1.4190 c3         1 0VB      -0.032800
     20 C21         -6.3910     2.3790     1.1690 c3         1 0VB      -0.178100
     21 C22         -0.9290     4.5440     0.8980 c3         1 0VB       0.147900
     22 C23         -1.1290    -3.0520    -1.9020 c3         1 0VB       0.284100
     23 N24          5.3690     0.6830     0.3340 nd         1 0VB      -0.515100
     24 N25          2.4030    -2.6280    -1.3540 ns         1 0VB      -0.485400
     25 N26          1.3770    -4.3580    -2.5330 n2         1 0VB      -0.899100
     26 N27         -4.7410     0.6360     0.6820 ns         1 0VB      -0.174000
     27 N28          0.1470    -3.0120    -1.1890 nu         1 0VB      -0.916400
     28 O29          1.5870    -1.2930     0.2950 o          1 0VB      -0.567100
     29 O30         -5.9070     1.5900    -1.0570 o          1 0VB      -0.575100
     30 O31          0.3390     4.3720     1.5560 os         1 0VB      -0.339100
     31 S32          6.3700    -0.4730    -0.3520 ss         1 0VB       0.350100
     32 Cl1         -2.7400     1.9110    -1.3160 cl         1 0VB      -0.186000
     33 H1           4.2590     2.1820     2.2010 ha         1 0VB       0.119000
     34 H2           1.7210     0.8610    -1.0540 ha         1 0VB       0.119000
     35 H3           2.6140     3.9410     2.7430 ha         1 0VB       0.125500
     36 H4           0.0870     2.5780    -0.4840 ha         1 0VB       0.125500
     37 H5          -3.0320    -3.5880    -0.0070 ha         1 0VB       0.126000
     38 H6          -1.3230    -0.3450    -2.2800 ha         1 0VB       0.132000
     39 H7          -4.6850    -1.6960     2.3930 hc         1 0VB       0.045033
     40 H8          -5.9020    -1.9420     1.1270 hc         1 0VB       0.045033
     41 H9          -4.7830    -3.2430     1.5450 hc         1 0VB       0.045033
     42 H10          5.0480    -2.9450    -2.4670 hc         1 0VB       0.057700
     43 H11          6.4480    -3.0810    -1.4060 hc         1 0VB       0.057700
     44 H12          4.8950    -3.7080    -0.8620 hc         1 0VB       0.057700
     45 H13         -6.8530     1.7280     1.9190 hc         1 0VB       0.061700
     46 H14         -5.6500     2.9280     1.7610 hc         1 0VB       0.061700
     47 H15         -7.1240     3.0530     0.7110 hc         1 0VB       0.061700
     48 H16         -0.7910     4.7550    -0.1700 h1         1 0VB       0.042367
     49 H17         -1.5480     3.6440     1.0030 h1         1 0VB       0.042367
     50 H18         -1.4760     5.3850     1.3420 h1         1 0VB       0.042367
     51 H19         -1.5450    -4.0690    -1.8940 h1         1 0VB       0.060200
     52 H20         -0.9920    -2.7550    -2.9520 h1         1 0VB       0.060200
     53 H21          3.2380    -2.7850    -1.8880 hn         1 0VB       0.324500
     54 H22          2.3500    -4.4840    -2.8380 hn         1 0VB       0.385400
     55 H23         -4.6900     0.6280     1.6920 hn         1 0VB       0.158000
     56 H24          0.2540    -2.2690    -0.4980 hn         1 0VB       0.525000
     57 C16          2.5160    -1.6180    -0.4310 c          1 0VB       0.657700
@<TRIPOS>BOND
     1     1     3 ar  
     2     1     7 ar  
     3     1    33 1   
     4     2     4 ar  
     5     2     7 ar  
     6     2    34 1   
     7     3    12 ar  
     8     3    35 1   
     9     4    12 ar  
    10     4    36 1   
    11     5     9 ar  
    12     5    10 ar  
    13     5    37 1   
    14     6     9 ar  
    15     6    13 ar  
    16     6    38 1   
    17     7    14 1   
    18     8    14 1   
    19     8    15 2   
    20     8    57 1   
    21     9    22 1   
    22    10    11 ar  
    23    10    18 1   
    24    11    13 ar  
    25    11    26 1   
    26    12    30 1   
    27    13    32 1   
    28    14    23 2   
    29    15    19 1   
    30    15    31 1   
    31    16    20 1   
    32    16    26 1   
    33    16    29 2   
    34    17    24 1   
    35    17    25 2   
    36    17    27 1   
    37    18    39 1   
    38    18    40 1   
    39    18    41 1   
    40    19    42 1   
    41    19    43 1   
    42    19    44 1   
    43    20    45 1   
    44    20    46 1   
    45    20    47 1   
    46    21    30 1   
    47    21    48 1   
    48    21    49 1   
    49    21    50 1   
    50    22    27 1   
    51    22    51 1   
    52    22    52 1   
    53    23    31 1   
    54    24    53 1   
    55    24    57 1   
    56    25    54 1   
    57    26    55 1   
    58    27    56 1   
    59    28    57 2   
@<TRIPOS>SUBSTRUCTURE
     1 0VB         1 TEMP              0 ****  ****    0 ROOT
