@<TRIPOS>MOLECULE
0VB
   57    59     1     0     0
SMALL
abcg2


@<TRIPOS>ATOM
      1 C01          4.1310     2.3470     1.6050 ca         1 0VB      -0.035000
      2 C02          3.2840     1.9380    -0.5940 ca         1 0VB      -0.035000
      3 C03          3.7530     3.6700     1.5100 ca         1 0VB      -0.178500
      4 C04          2.9040     3.2670    -0.7080 ca         1 0VB      -0.178500
      5 C05         -2.8240    -2.1260    -0.3060 ca         1 0VB      -0.083000
      6 C06         -3.5560    -0.3700    -1.7630 ca         1 0VB      -0.090000
      7 C07          3.8940     1.4540     0.5570 ca         1 0VB      -0.176500
      8 C08          3.6120    -1.0830     0.1690 cc         1 0VB      -0.243600
      9 C09         -2.6580    -1.3860    -1.4740 ca         1 0VB      -0.097300
     10 C10         -3.8730    -1.8810     0.5680 ca         1 0VB      -0.077300
     11 C11         -4.7760    -0.8520     0.2730 ca         1 0VB      -0.032000
     12 C12          3.1310     4.1440     0.3510 ca         1 0VB       0.159100
     13 C13         -4.6000    -0.1100    -0.8890 ca         1 0VB       0.129000
     14 C14          4.3270     0.0540     0.6650 cc         1 0VB       0.420500
     15 C15          4.3030    -2.2440     0.4050 cd         1 0VB      -0.190300
     16 C17         -7.1300    -0.8270     0.8810 c          1 0VB       0.607100
     17 C18          0.8930    -1.9420    -2.2840 c2         1 0VB       0.697800
     18 C19         -4.0470    -2.7030     1.8100 c3         1 0VB      -0.045800
     19 C20          3.9450    -3.6550     0.0810 c3         1 0VB      -0.032800
     20 C21         -8.0980    -0.4420     1.9680 c3         1 0VB      -0.178100
     21 C22          2.1640     5.9800    -0.8020 c3         1 0VB       0.147900
     22 C23         -1.5150    -1.6770    -2.4070 c3         1 0VB       0.284100
     23 N24          5.4730    -0.2180     1.2370 nd         1 0VB      -0.515100
     24 N25          2.0700    -1.6870    -1.5510 ns         1 0VB      -0.485400
     25 N26          0.9110    -2.5350    -3.4130 n2         1 0VB      -0.899100
     26 N27         -5.8280    -0.5700     1.1630 ns         1 0VB      -0.174000
     27 N28         -0.2620    -1.5510    -1.7020 nu         1 0VB      -0.916400
     28 O29          1.3370    -0.4710     0.2390 o          1 0VB      -0.567100
     29 O30         -7.4840    -1.3040    -0.1820 o          1 0VB      -0.575100
     30 O31          2.7930     5.4440     0.3460 os         1 0VB      -0.339100
     31 S32          5.7460    -1.8430     1.2200 ss         1 0VB       0.350100
     32 CL1         -5.6720     1.1990    -1.2410 cl         1 0VB      -0.186000
     33 H1           4.6060     1.9960     2.5120 ha         1 0VB       0.119000
     34 H2           3.1210     1.2870    -1.4440 ha         1 0VB       0.119000
     35 H3           3.9330     4.3500     2.3330 ha         1 0VB       0.125500
     36 H4           2.4420     3.5990    -1.6280 ha         1 0VB       0.125500
     37 H5          -2.1230    -2.9210    -0.0780 ha         1 0VB       0.126000
     38 H6          -3.4390     0.2280    -2.6570 ha         1 0VB       0.132000
     39 H7          -3.9740    -2.0940     2.7130 hc         1 0VB       0.045033
     40 H8          -5.0220    -3.1910     1.8320 hc         1 0VB       0.045033
     41 H9          -3.2830    -3.4750     1.8720 hc         1 0VB       0.045033
     42 H10          4.2520    -3.9060    -0.9350 hc         1 0VB       0.057700
     43 H11          4.4370    -4.3550     0.7530 hc         1 0VB       0.057700
     44 H12          2.8720    -3.8160     0.1580 hc         1 0VB       0.057700
     45 H13         -7.6260    -0.3170     2.9410 hc         1 0VB       0.061700
     46 H14         -8.5710     0.5050     1.7010 hc         1 0VB       0.061700
     47 H15         -8.8820    -1.1910     2.0480 hc         1 0VB       0.061700
     48 H16          2.8070     5.9190    -1.6840 h1         1 0VB       0.042367
     49 H17          1.2160     5.4820    -1.0200 h1         1 0VB       0.042367
     50 H18          1.9670     7.0270    -0.5850 h1         1 0VB       0.042367
     51 H19         -1.6030    -2.6940    -2.7950 h1         1 0VB       0.060200
     52 H20         -1.5600    -1.0080    -3.2730 h1         1 0VB       0.060200
     53 H21          2.9160    -2.0040    -2.0020 hn         1 0VB       0.324500
     54 H22          1.8460    -2.8100    -3.6890 hn         1 0VB       0.385400
     55 H23         -5.5850    -0.2610     2.0920 hn         1 0VB       0.158000
     56 H24         -0.2060    -0.8920    -0.9410 hn         1 0VB       0.525000
     57 C16          2.2280    -1.0390    -0.3650 c          1 0VB       0.657700
@<TRIPOS>BOND
     1     1     3 ar  
     2     1     7 ar  
     3     1    33 1   
     4     2     4 ar  
     5     2     7 ar  
     6     2    34 1   
     7     3    12 ar  
     8     3    35 1   
     9     4    12 ar  
    10     4    36 1   
    11     5     9 ar  
    12     5    10 ar  
    13     5    37 1   
    14     6     9 ar  
    15     6    13 ar  
    16     6    38 1   
    17     7    14 1   
    18     8    14 1   
    19     8    15 2   
    20     8    57 1   
    21     9    22 1   
    22    10    11 ar  
    23    10    18 1   
    24    11    13 ar  
    25    11    26 1   
    26    12    30 1   
    27    13    32 1   
    28    14    23 2   
    29    15    19 1   
    30    15    31 1   
    31    16    20 1   
    32    16    26 1   
    33    16    29 2   
    34    17    24 1   
    35    17    25 2   
    36    17    27 1   
    37    18    39 1   
    38    18    40 1   
    39    18    41 1   
    40    19    42 1   
    41    19    43 1   
    42    19    44 1   
    43    20    45 1   
    44    20    46 1   
    45    20    47 1   
    46    21    30 1   
    47    21    48 1   
    48    21    49 1   
    49    21    50 1   
    50    22    27 1   
    51    22    51 1   
    52    22    52 1   
    53    23    31 1   
    54    24    53 1   
    55    24    57 1   
    56    25    54 1   
    57    26    55 1   
    58    27    56 1   
    59    28    57 2   
@<TRIPOS>SUBSTRUCTURE
     1 0VB         1 TEMP              0 ****  ****    0 ROOT
