@<TRIPOS>MOLECULE
0VC
   41    43     1     0     0
SMALL
No Charge or Current Charge


@<TRIPOS>ATOM
      1 C18          7.8590     1.6330    -0.4940 c3         1 0VC       0.147900
      2 O17          6.4730     1.7760    -0.1380 os         1 0VC      -0.456000
      3 C16          5.6770     0.6020    -0.3700 c3         1 0VC       0.160600
      4 C15          4.2320     0.9190     0.0620 c3         1 0VC      -0.052400
      5 C13          3.2850    -0.2590    -0.1450 cx         1 0VC      -0.109700
      6 C12          2.0210    -0.3930     0.6770 cx         1 0VC      -0.079400
      7 C14          3.1720    -1.3580     0.8850 cx         1 0VC      -0.119400
      8 C6           0.7100    -0.8230     0.0630 ca         1 0VC      -0.056300
      9 C5           0.6430    -1.8080    -0.9510 ca         1 0VC       0.296900
     10 N4          -0.5170    -2.2150    -1.5230 nb         1 0VC      -0.639000
     11 C3          -1.6660    -1.6400    -1.0930 ca         1 0VC       0.247900
     12 C2          -1.7050    -0.6450    -0.0830 ca         1 0VC       0.103100
     13 C1          -0.4950    -0.2350     0.4990 ca         1 0VC      -0.114000
     14 O7          -2.8780    -0.0580     0.3570 os         1 0VC      -0.340100
     15 C39         -4.1610    -0.4280    -0.1880 c3         1 0VC       0.176600
     16 C8          -5.2510     0.4120     0.5150 cy         1 0VC       0.140500
     17 C9          -6.7260     0.3120     0.0030 cy         1 0VC      -0.103400
     18 C10         -6.8370     1.8020     0.4550 cy         1 0VC       0.133800
     19 N11         -5.3770     1.8620     0.1340 n6         1 0VC      -0.839400
     20 H1           7.9650     1.4000    -1.5620 h1         1 0VC       0.027700
     21 H2           8.4030     2.5640    -0.2910 h1         1 0VC       0.027700
     22 H3           8.3290     0.8290     0.0860 h1         1 0VC       0.027700
     23 H4           5.6910     0.3270    -1.4320 h1         1 0VC       0.021200
     24 H5           6.0560    -0.2460     0.2160 h1         1 0VC       0.021200
     25 H6           4.2360     1.2220     1.1160 hc         1 0VC       0.056700
     26 H7           3.8700     1.7800    -0.5130 hc         1 0VC       0.056700
     27 H8           3.2290    -0.5610    -1.1890 hc         1 0VC       0.082700
     28 H9           1.8800     0.3450     1.4650 hc         1 0VC       0.085700
     29 H10          3.0640    -2.3790     0.5270 hc         1 0VC       0.075700
     30 H11          3.7490    -1.2610     1.8010 hc         1 0VC       0.075700
     31 H12          1.5450    -2.2910    -1.3240 h4         1 0VC       0.018100
     32 H13         -2.5750    -1.9950    -1.5770 h4         1 0VC       0.021100
     33 H14         -0.4970     0.5270     1.2750 ha         1 0VC       0.131000
     34 H15         -4.2030    -0.2320    -1.2670 h1         1 0VC       0.045200
     35 H16         -4.3710    -1.4900    -0.0090 h1         1 0VC       0.045200
     36 H17         -5.1900     0.2390     1.5980 h1         1 0VC       0.049700
     37 H18         -6.8300     0.1540    -1.0770 hc         1 0VC       0.060200
     38 H19         -7.3700    -0.3990     0.5310 hc         1 0VC       0.060200
     39 H20         -7.5030     2.4230    -0.1570 h1         1 0VC       0.048700
     40 H21         -7.0900     1.9150     1.5180 h1         1 0VC       0.048700
     41 H22         -4.8120     2.5420     0.6590 hn         1 0VC       0.416000
@<TRIPOS>BOND
     1     1     2 1   
     2     1    20 1   
     3     1    21 1   
     4     1    22 1   
     5     2     3 1   
     6     3     4 1   
     7     3    23 1   
     8     3    24 1   
     9     4     5 1   
    10     4    25 1   
    11     4    26 1   
    12     5     6 1   
    13     5     7 1   
    14     5    27 1   
    15     6     7 1   
    16     6     8 1   
    17     6    28 1   
    18     7    29 1   
    19     7    30 1   
    20     8     9 ar  
    21     8    13 ar  
    22     9    10 ar  
    23     9    31 1   
    24    10    11 ar  
    25    11    12 ar  
    26    11    32 1   
    27    12    13 ar  
    28    12    14 1   
    29    13    33 1   
    30    14    15 1   
    31    15    16 1   
    32    15    34 1   
    33    15    35 1   
    34    16    17 1   
    35    16    19 1   
    36    16    36 1   
    37    17    18 1   
    38    17    37 1   
    39    17    38 1   
    40    18    19 1   
    41    18    39 1   
    42    18    40 1   
    43    19    41 1   
@<TRIPOS>SUBSTRUCTURE
     1 0VC         1 TEMP              0 ****  ****    0 ROOT
