@<TRIPOS>MOLECULE
0VC
   41    43     1     0     0
SMALL
bcc


@<TRIPOS>ATOM
      1 C18          7.7380     1.4970    -0.4160 c3         1 0VC       0.124700
      2 O17          6.3900     1.7540    -0.1190 os         1 0VC      -0.409600
      3 C16          5.5640     0.6410    -0.3570 c3         1 0VC       0.137400
      4 C15          4.1360     0.9850     0.0220 c3         1 0VC      -0.052400
      5 C13          3.2130    -0.1810    -0.2200 cx         1 0VC      -0.109700
      6 C12          1.9780    -0.3410     0.6280 cx         1 0VC      -0.079400
      7 C14          3.1350    -1.2950     0.7670 cx         1 0VC      -0.119400
      8 C6           0.6900    -0.7660     0.0380 ca         1 0VC      -0.121600
      9 C5           0.6020    -1.7250    -0.9770 ca         1 0VC       0.362200
     10 N4          -0.5420    -2.1050    -1.5170 nb         1 0VC      -0.639000
     11 C3          -1.6800    -1.5670    -1.0890 ca         1 0VC       0.313200
     12 C2          -1.7080    -0.6080    -0.0800 ca         1 0VC       0.037800
     13 C1          -0.4970    -0.2090     0.4820 ca         1 0VC      -0.132000
     14 O7          -2.8200    -0.0310     0.4030 os         1 0VC      -0.316900
     15 C39         -4.0840    -0.4260    -0.1130 c3         1 0VC       0.153400
     16 C8          -5.1380     0.3630     0.6160 cy         1 0VC       0.140500
     17 C9          -6.5820     0.2280     0.1080 cy         1 0VC      -0.103400
     18 C10         -6.6500     1.7570     0.2420 cy         1 0VC       0.133800
     19 N11         -5.1800     1.7970     0.2970 n6         1 0VC      -0.784200
     20 H1           7.8850     1.2370    -1.4720 h1         1 0VC       0.027700
     21 H2           8.3110     2.3980    -0.2000 h1         1 0VC       0.027700
     22 H3           8.1430     0.6760     0.1880 h1         1 0VC       0.027700
     23 H4           5.6110     0.3430    -1.4150 h1         1 0VC       0.021200
     24 H5           5.9030    -0.2270     0.2280 h1         1 0VC       0.021200
     25 H6           4.0980     1.2690     1.0780 hc         1 0VC       0.056700
     26 H7           3.7970     1.8510    -0.5540 hc         1 0VC       0.056700
     27 H8           3.0960    -0.4620    -1.2630 hc         1 0VC       0.082700
     28 H9           1.8720     0.3840     1.4300 hc         1 0VC       0.085700
     29 H10          3.0070    -2.3070     0.4030 hc         1 0VC       0.075700
     30 H11          3.7300    -1.2250     1.6710 hc         1 0VC       0.075700
     31 H12          1.4950    -2.2040    -1.3660 h4         1 0VC       0.018100
     32 H13         -2.5860    -1.9180    -1.5690 h4         1 0VC       0.021100
     33 H14         -0.4960     0.5390     1.2680 ha         1 0VC       0.149000
     34 H15         -4.1430    -0.2210    -1.1880 h1         1 0VC       0.045200
     35 H16         -4.2460    -1.4990     0.0420 h1         1 0VC       0.045200
     36 H17         -5.0740     0.1560     1.6920 h1         1 0VC       0.049700
     37 H18         -6.6370    -0.1120    -0.9270 hc         1 0VC       0.060200
     38 H19         -7.2670    -0.3620     0.7130 hc         1 0VC       0.060200
     39 H20         -7.0930     2.3120    -0.5890 h1         1 0VC       0.048700
     40 H21         -7.1440     2.0700     1.1670 h1         1 0VC       0.048700
     41 H22         -4.7950     2.4030     1.0100 hn         1 0VC       0.360800
@<TRIPOS>BOND
     1     1     2 1   
     2     1    20 1   
     3     1    21 1   
     4     1    22 1   
     5     2     3 1   
     6     3     4 1   
     7     3    23 1   
     8     3    24 1   
     9     4     5 1   
    10     4    25 1   
    11     4    26 1   
    12     5     6 1   
    13     5     7 1   
    14     5    27 1   
    15     6     7 1   
    16     6     8 1   
    17     6    28 1   
    18     7    29 1   
    19     7    30 1   
    20     8     9 ar  
    21     8    13 ar  
    22     9    10 ar  
    23     9    31 1   
    24    10    11 ar  
    25    11    12 ar  
    26    11    32 1   
    27    12    13 ar  
    28    12    14 1   
    29    13    33 1   
    30    14    15 1   
    31    15    16 1   
    32    15    34 1   
    33    15    35 1   
    34    16    17 1   
    35    16    19 1   
    36    16    36 1   
    37    17    18 1   
    38    17    37 1   
    39    17    38 1   
    40    18    19 1   
    41    18    39 1   
    42    18    40 1   
    43    19    41 1   
@<TRIPOS>SUBSTRUCTURE
     1 0VC         1 TEMP              0 ****  ****    0 ROOT
