@<TRIPOS>MOLECULE
0VD
   46    48     1     0     0
SMALL
No Charge or Current Charge


@<TRIPOS>ATOM
      1 C1          -5.2950     0.8530    -2.1620 cc         1 0VD      -0.215000
      2 N1          -6.0740    -0.0460    -2.8640 na         1 0VD      -0.300500
      3 C2          -5.8050    -1.3050    -2.3850 cc         1 0VD       0.390400
      4 N2          -4.8980    -1.2480    -1.4210 nd         1 0VD      -0.681000
      5 C12          1.5350     0.3470     1.7770 ca         1 0VD      -0.172000
      6 C13          0.2570     0.3070     2.3610 ca         1 0VD      -0.058000
      7 C4          -3.5620     0.5580    -0.2680 c3         1 0VD      -0.077700
      8 C5          -4.0970     0.6070     1.1870 c3         1 0VD       0.067500
      9 C6          -2.9160     0.6980     2.2210 c          1 0VD       0.528100
     10 C8          -0.7340    -0.5550     1.8520 ca         1 0VD      -0.111300
     11 C10          0.8490    -1.3460     0.1730 ca         1 0VD      -0.172000
     12 C9          -0.4280    -1.3860     0.7570 ca         1 0VD      -0.058000
     13 C7          -2.1220    -0.5940     2.4920 c3         1 0VD      -0.129100
     14 C11          1.8350    -0.4820     0.6750 ca         1 0VD       0.145100
     15 C19          6.6580     0.6200    -2.3920 ca         1 0VD      -0.115500
     16 C18          7.5940    -0.3690    -2.0430 ca         1 0VD      -0.099000
     17 C17          7.4110    -1.1230    -0.8710 ca         1 0VD      -0.115500
     18 C20          5.5420     0.8550    -1.5710 ca         1 0VD      -0.085000
     19 C16          6.2950    -0.8880    -0.0490 ca         1 0VD      -0.085000
     20 C15          5.3550     0.1040    -0.3930 ca         1 0VD      -0.095300
     21 C14          4.1460     0.3590     0.4970 c3         1 0VD       0.210900
     22 N3          -5.1450     1.6810     1.3210 n8         1 0VD      -0.981200
     23 C3          -4.5860     0.0900    -1.2700 cd         1 0VD       0.254300
     24 O1          -2.6560     1.7410     2.8140 o          1 0VD      -0.518100
     25 O2           3.0700    -0.4880     0.0600 os         1 0VD      -0.342100
     26 H1          -5.3010     1.9220    -2.3350 h4         1 0VD       0.157000
     27 H2          -6.7310     0.1640    -3.6060 hn         1 0VD       0.351000
     28 H3          -6.2850    -2.1960    -2.7740 h5         1 0VD       0.053100
     29 H5           2.2740     1.0250     2.1930 ha         1 0VD       0.121500
     30 H6           0.0370     0.9490     3.2110 ha         1 0VD       0.110500
     31 H7          -3.1820     1.5470    -0.5510 hc         1 0VD       0.051700
     32 H8          -2.7010    -0.1160    -0.3150 hc         1 0VD       0.051700
     33 H9          -4.5860    -0.3580     1.3840 h1         1 0VD       0.089700
     34 H10          1.0770    -1.9880    -0.6730 ha         1 0VD       0.121500
     35 H11         -1.1780    -2.0650     0.3550 ha         1 0VD       0.110500
     36 H12         -2.0100    -0.7090     3.5760 hc         1 0VD       0.069700
     37 H13         -2.6810    -1.4510     2.0990 hc         1 0VD       0.069700
     38 H15          8.4580    -0.5510    -2.6790 ha         1 0VD       0.113000
     39 H16          8.1340    -1.8890    -0.6000 ha         1 0VD       0.114000
     40 H17          4.8210     1.6210    -1.8490 ha         1 0VD       0.115000
     41 H18          6.1600    -1.4780     0.8560 ha         1 0VD       0.115000
     42 H19          4.4090     0.1420     1.5410 h1         1 0VD       0.041200
     43 H20          3.8590     1.4160     0.4290 h1         1 0VD       0.041200
     44 H21         -5.5350     1.6630     2.2720 hn         1 0VD       0.402500
     45 H22         -4.6870     2.6010     1.2800 hn         1 0VD       0.402500
     46 H14          6.7980     1.2030    -3.3000 ha         1 0VD       0.114000
@<TRIPOS>BOND
     1     1     2 1   
     2     1    23 2   
     3     1    26 1   
     4     2     3 1   
     5     2    27 1   
     6     3     4 2   
     7     3    28 1   
     8     4    23 1   
     9     5     6 ar  
    10     5    14 ar  
    11     5    29 1   
    12     6    10 ar  
    13     6    30 1   
    14     7     8 1   
    15     7    23 1   
    16     7    31 1   
    17     7    32 1   
    18     8     9 1   
    19     8    22 1   
    20     8    33 1   
    21     9    13 1   
    22     9    24 2   
    23    10    12 ar  
    24    10    13 1   
    25    11    12 ar  
    26    11    14 ar  
    27    11    34 1   
    28    12    35 1   
    29    13    36 1   
    30    13    37 1   
    31    14    25 1   
    32    15    16 ar  
    33    15    18 ar  
    34    15    46 1   
    35    16    17 ar  
    36    16    38 1   
    37    17    19 ar  
    38    17    39 1   
    39    18    20 ar  
    40    18    40 1   
    41    19    20 ar  
    42    19    41 1   
    43    20    21 1   
    44    21    25 1   
    45    21    42 1   
    46    21    43 1   
    47    22    44 1   
    48    22    45 1   
@<TRIPOS>SUBSTRUCTURE
     1 0VD         1 TEMP              0 ****  ****    0 ROOT
