@<TRIPOS>MOLECULE
0VD
   46    48     1     0     0
SMALL
bcc


@<TRIPOS>ATOM
      1 C1          -6.8410     0.4940    -1.6020 cc         1 0VD      -0.247600
      2 N1          -7.9850    -0.2360    -1.4530 na         1 0VD      -0.300900
      3 C2          -7.6940    -1.2880    -0.6660 cc         1 0VD       0.390400
      4 N2          -6.4360    -1.2810    -0.3030 nd         1 0VD      -0.681000
      5 C12          1.8640     0.1200     1.4440 ca         1 0VD      -0.190000
      6 C13          0.5080     0.0040     1.7310 ca         1 0VD      -0.076000
      7 C4          -4.4560     0.1900    -0.6940 c3         1 0VD      -0.077700
      8 C5          -4.1270     0.5410     0.7700 c3         1 0VD       0.067500
      9 C6          -2.6130     0.6740     0.8840 c          1 0VD       0.528100
     10 C8          -0.3900    -0.5240     0.8150 ca         1 0VD      -0.111300
     11 C10          1.4520    -0.8280    -0.7270 ca         1 0VD      -0.190000
     12 C9           0.1080    -0.9340    -0.4210 ca         1 0VD      -0.076000
     13 C7          -1.8520    -0.6130     1.1230 c3         1 0VD      -0.129100
     14 C11          2.3450    -0.2970     0.2060 ca         1 0VD       0.145100
     15 C19          7.8750     1.1960    -0.8870 ca         1 0VD      -0.133500
     16 C18          8.4390    -0.0490    -1.1280 ca         1 0VD      -0.117000
     17 C17          7.7580    -1.2000    -0.7500 ca         1 0VD      -0.133500
     18 C20          6.6310     1.2880    -0.2740 ca         1 0VD      -0.103000
     19 C16          6.5190    -1.1050    -0.1340 ca         1 0VD      -0.103000
     20 C15          5.9450     0.1410     0.1100 ca         1 0VD      -0.095300
     21 C14          4.5980     0.2340     0.7610 c3         1 0VD       0.187700
     22 N3          -4.8700     1.7070     1.1810 n8         1 0VD      -0.870800
     23 C3          -5.8880    -0.1690    -0.8810 cd         1 0VD       0.319600
     24 O1          -2.0610     1.7450     0.7960 o          1 0VD      -0.518100
     25 O2           3.6370    -0.2310    -0.1760 os         1 0VD      -0.318900
     26 H1          -6.8020     1.3970    -2.1880 h4         1 0VD       0.175000
     27 H2          -8.8810    -0.0330    -1.8670 hn         1 0VD       0.300700
     28 H3          -8.4310    -2.0280    -0.3920 h5         1 0VD       0.053100
     29 H5           2.5200     0.5370     2.1960 ha         1 0VD       0.139500
     30 H6           0.1560     0.3300     2.7020 ha         1 0VD       0.128500
     31 H7          -4.2020     1.0430    -1.3290 hc         1 0VD       0.051700
     32 H8          -3.8250    -0.6400    -1.0240 hc         1 0VD       0.051700
     33 H9          -4.4380    -0.3070     1.3900 h1         1 0VD       0.089700
     34 H10          1.8210    -1.1590    -1.6890 ha         1 0VD       0.139500
     35 H11         -0.5640    -1.3540    -1.1610 ha         1 0VD       0.128500
     36 H12         -2.0180    -0.8590     2.1790 hc         1 0VD       0.069700
     37 H13         -2.3290    -1.4260     0.5700 hc         1 0VD       0.069700
     38 H15          9.4070    -0.1240    -1.6070 ha         1 0VD       0.131000
     39 H16          8.1960    -2.1730    -0.9320 ha         1 0VD       0.132000
     40 H17          6.1940     2.2610    -0.0900 ha         1 0VD       0.133000
     41 H18          5.9980    -2.0070     0.1630 ha         1 0VD       0.133000
     42 H19          4.5690    -0.3830     1.6670 h1         1 0VD       0.041200
     43 H20          4.3850     1.2670     1.0540 h1         1 0VD       0.041200
     44 H21         -4.6910     1.9070     2.1570 hn         1 0VD       0.347300
     45 H22         -4.5530     2.5180     0.6630 hn         1 0VD       0.347300
     46 H14          8.4010     2.0970    -1.1750 ha         1 0VD       0.132000
@<TRIPOS>BOND
     1     1     2 1   
     2     1    23 2   
     3     1    26 1   
     4     2     3 1   
     5     2    27 1   
     6     3     4 2   
     7     3    28 1   
     8     4    23 1   
     9     5     6 ar  
    10     5    14 ar  
    11     5    29 1   
    12     6    10 ar  
    13     6    30 1   
    14     7     8 1   
    15     7    23 1   
    16     7    31 1   
    17     7    32 1   
    18     8     9 1   
    19     8    22 1   
    20     8    33 1   
    21     9    13 1   
    22     9    24 2   
    23    10    12 ar  
    24    10    13 1   
    25    11    12 ar  
    26    11    14 ar  
    27    11    34 1   
    28    12    35 1   
    29    13    36 1   
    30    13    37 1   
    31    14    25 1   
    32    15    16 ar  
    33    15    18 ar  
    34    15    46 1   
    35    16    17 ar  
    36    16    38 1   
    37    17    19 ar  
    38    17    39 1   
    39    18    20 ar  
    40    18    40 1   
    41    19    20 ar  
    42    19    41 1   
    43    20    21 1   
    44    21    25 1   
    45    21    42 1   
    46    21    43 1   
    47    22    44 1   
    48    22    45 1   
@<TRIPOS>SUBSTRUCTURE
     1 0VD         1 TEMP              0 ****  ****    0 ROOT
