@<TRIPOS>MOLECULE
0VE
   52    55     1     0     0
SMALL
bcc


@<TRIPOS>ATOM
      1 N1          -3.0900     1.2360     0.1910 na         1 0VE       0.071700
      2 C2          -1.8330     1.7300     0.4000 cc         1 0VE      -0.196600
      3 C3          -0.7150     0.8460     0.2440 cc         1 0VE       0.750200
      4 C4          -3.2890    -0.0870    -0.1730 cc         1 0VE      -0.176600
      5 N5          -0.8970    -0.4060    -0.0860 nd         1 0VE      -0.768000
      6 C6          -2.1660    -0.8410    -0.2880 cd         1 0VE       0.440200
      7 N7          -1.8520     2.9940     0.7630 nd         1 0VE      -0.287600
      8 C8          -4.6460    -0.5880    -0.4290 ca         1 0VE       0.009000
      9 N9           0.4970     1.3920     0.4630 nu         1 0VE      -0.713300
     10 C10         -3.9560     2.2600     0.4510 cc         1 0VE      -0.208100
     11 C11         -3.1640     3.3260     0.7960 cd         1 0VE      -0.003400
     12 C12          4.4720    -0.1080     0.2930 ca         1 0VE       0.195600
     13 C13         -5.0600    -1.7660     0.1850 ca         1 0VE      -0.149000
     14 N14          5.7670    -0.5590     0.2330 nh         1 0VE      -0.691000
     15 C15          1.7770     0.8330     0.3940 ca         1 0VE       0.098600
     16 C16          3.3760    -0.9380     0.0010 ca         1 0VE      -0.193000
     17 C17          4.1600     1.2190     0.6460 ca         1 0VE      -0.193000
     18 C18         -6.3250    -2.2890    -0.0740 ca         1 0VE       0.141100
     19 C19          2.0660    -0.4860     0.0510 ca         1 0VE      -0.112000
     20 C20          2.8550     1.6680     0.6900 ca         1 0VE      -0.112000
     21 O21         -6.6640    -3.4300     0.5550 oh         1 0VE      -0.492100
     22 C22         -5.5100     0.0780    -1.3020 ca         1 0VE      -0.157000
     23 O23          7.1160    -1.5690    -2.1480 oh         1 0VE      -0.596800
     24 C24         -6.7690    -0.4450    -1.5460 ca         1 0VE      -0.087000
     25 C25          6.0650    -1.9460    -0.0410 c3         1 0VE       0.232800
     26 C26          6.8830     0.3150     0.5300 c3         1 0VE       0.232800
     27 C27         -7.1860    -1.6220    -0.9400 ca         1 0VE      -0.218000
     28 C28          6.0850    -2.2960    -1.5190 c3         1 0VE       0.113400
     29 C29          7.1700     0.4560     2.0210 c3         1 0VE      -0.120100
     30 H1          -2.2670    -1.8770    -0.5860 h4         1 0VE       0.033100
     31 H2           0.4720     2.3700     0.7150 hn         1 0VE       0.466800
     32 H3          -5.0250     2.1570     0.3820 h4         1 0VE       0.189000
     33 H4          -3.4950     4.3170     1.0670 h4         1 0VE       0.178000
     34 H5          -4.4060    -2.2770     0.8810 ha         1 0VE       0.153000
     35 H6           3.5220    -1.9690    -0.2850 ha         1 0VE       0.129000
     36 H7           4.9360     1.9260     0.9020 ha         1 0VE       0.129000
     37 H8           1.2710    -1.1750    -0.1840 ha         1 0VE       0.145000
     38 H9           2.6750     2.7010     0.9660 ha         1 0VE       0.145000
     39 H10         -7.5690    -3.6810     0.3350 ho         1 0VE       0.428000
     40 H11         -5.1960     0.9820    -1.8060 ha         1 0VE       0.142000
     41 H12          7.0600    -1.7270    -3.0940 ho         1 0VE       0.404000
     42 H13         -7.4370     0.0650    -2.2280 ha         1 0VE       0.134000
     43 H14          7.0390    -2.1790     0.3960 h1         1 0VE       0.052700
     44 H15          5.3550    -2.6060     0.4640 h1         1 0VE       0.052700
     45 H16          7.7620    -0.0850     0.0270 h1         1 0VE       0.053200
     46 H17          6.7180     1.2970     0.0810 h1         1 0VE       0.053200
     47 H18         -8.1760    -2.0150    -1.1420 ha         1 0VE       0.134000
     48 H19          5.1080    -2.0690    -1.9630 h1         1 0VE       0.025700
     49 H20          6.2340    -3.3800    -1.6110 h1         1 0VE       0.025700
     50 H21          8.0170     1.1240     2.1840 hc         1 0VE       0.039033
     51 H22          6.3160     0.8610     2.5630 hc         1 0VE       0.039033
     52 H23          7.4190    -0.5110     2.4620 hc         1 0VE       0.039033
@<TRIPOS>BOND
     1     1     2 1   
     2     1     4 1   
     3     1    10 1   
     4     2     3 1   
     5     2     7 2   
     6     3     5 2   
     7     3     9 1   
     8     4     6 2   
     9     4     8 1   
    10     5     6 1   
    11     6    30 1   
    12     7    11 1   
    13     8    13 ar  
    14     8    22 ar  
    15     9    15 1   
    16     9    31 1   
    17    10    11 2   
    18    10    32 1   
    19    11    33 1   
    20    12    14 1   
    21    12    16 ar  
    22    12    17 ar  
    23    13    18 ar  
    24    13    34 1   
    25    14    25 1   
    26    14    26 1   
    27    15    19 ar  
    28    15    20 ar  
    29    16    19 ar  
    30    16    35 1   
    31    17    20 ar  
    32    17    36 1   
    33    18    21 1   
    34    18    27 ar  
    35    19    37 1   
    36    20    38 1   
    37    21    39 1   
    38    22    24 ar  
    39    22    40 1   
    40    23    28 1   
    41    23    41 1   
    42    24    27 ar  
    43    24    42 1   
    44    25    28 1   
    45    25    43 1   
    46    25    44 1   
    47    26    29 1   
    48    26    45 1   
    49    26    46 1   
    50    27    47 1   
    51    28    48 1   
    52    28    49 1   
    53    29    50 1   
    54    29    51 1   
    55    29    52 1   
@<TRIPOS>SUBSTRUCTURE
     1 0VE         1 TEMP              0 ****  ****    0 ROOT
