@<TRIPOS>MOLECULE
0VE
   52    55     1     0     0
SMALL
No Charge or Current Charge


@<TRIPOS>ATOM
      1 N1          -3.1210     1.4160    -0.1030 na         1 0VE       0.173100
      2 C2          -1.8790     1.8960     0.0370 cc         1 0VE      -0.182000
      3 C3          -0.8100     0.9740    -0.0780 cc         1 0VE       0.684900
      4 C4          -3.3740     0.0510    -0.1800 cc         1 0VE      -0.162000
      5 N5          -0.9250    -0.3240    -0.2490 nd         1 0VE      -0.768000
      6 C6          -2.2540    -0.7870    -0.2950 cd         1 0VE       0.374900
      7 N7          -1.9330     3.2010     0.2720 nd         1 0VE      -0.287600
      8 C8          -4.6980    -0.5640    -0.2910 ca         1 0VE       0.009000
      9 N9           0.4360     1.5030     0.0480 nu         1 0VE      -0.906900
     10 C10         -4.0630     2.3650     0.1710 cc         1 0VE      -0.258100
     11 C11         -3.2920     3.4990     0.3550 cd         1 0VE      -0.053400
     12 C12          4.3850    -0.0630     0.2250 ca         1 0VE       0.334000
     13 C13         -5.0290    -1.6840     0.4980 ca         1 0VE      -0.131000
     14 N14          5.7120    -0.5790     0.2900 nh         1 0VE      -0.829400
     15 C15          1.7240     0.9620     0.1020 ca         1 0VE       0.237000
     16 C16          3.4380    -0.5990    -0.6760 ca         1 0VE      -0.175000
     17 C17          3.9740     1.0030     1.0560 ca         1 0VE      -0.175000
     18 C18         -6.2940    -2.2830     0.3890 ca         1 0VE       0.141100
     19 C19          2.1270    -0.0910    -0.7400 ca         1 0VE      -0.094000
     20 C20          2.6620     1.5110     0.9910 ca         1 0VE      -0.094000
     21 O21         -6.6010    -3.3610     1.1630 oh         1 0VE      -0.531100
     22 C22         -5.6500    -0.0630    -1.2000 ca         1 0VE      -0.139000
     23 O23          7.8440    -1.6060    -1.8370 oh         1 0VE      -0.659000
     24 C24         -6.9170    -0.6620    -1.3110 ca         1 0VE      -0.069000
     25 C25          6.0380    -1.9690    -0.1560 c3         1 0VE       0.232800
     26 C26          6.8420     0.2280     0.8140 c3         1 0VE       0.232800
     27 C27         -7.2400    -1.7730    -0.5140 ca         1 0VE      -0.200000
     28 C28          6.5140    -2.1230    -1.6350 c3         1 0VE       0.136600
     29 C29          7.1620    -0.0490     2.2950 c3         1 0VE      -0.120100
     30 H1          -2.3630    -1.8570    -0.4250 h4         1 0VE       0.033100
     31 H2           0.3520     2.4630     0.3740 hn         1 0VE       0.522000
     32 H3          -5.1310     2.1880     0.2050 h4         1 0VE       0.239000
     33 H4          -3.6370     4.5080     0.5720 h4         1 0VE       0.228000
     34 H5          -4.3100    -2.0860     1.2060 ha         1 0VE       0.135000
     35 H6           3.7070    -1.4070    -1.3460 ha         1 0VE       0.111000
     36 H7           4.6600     1.4450     1.7690 ha         1 0VE       0.111000
     37 H8           1.4280    -0.5120    -1.4560 ha         1 0VE       0.127000
     38 H9           2.3750     2.3300     1.6450 ha         1 0VE       0.127000
     39 H10         -7.5170    -3.6410     0.9530 ho         1 0VE       0.467000
     40 H11         -5.4060     0.7860    -1.8340 ha         1 0VE       0.124000
     41 H12          8.0410    -1.6890    -2.7970 ho         1 0VE       0.443000
     42 H13         -7.6450    -0.2680    -2.0170 ha         1 0VE       0.116000
     43 H14          6.8110    -2.3960     0.4970 h1         1 0VE       0.052700
     44 H15          5.1570    -2.6090    -0.0150 h1         1 0VE       0.052700
     45 H16          7.7470     0.0290     0.2250 h1         1 0VE       0.053200
     46 H17          6.6350     1.3000     0.6850 h1         1 0VE       0.053200
     47 H18         -8.2210    -2.2320    -0.6050 ha         1 0VE       0.116000
     48 H19          5.8040    -1.6150    -2.2990 h1         1 0VE       0.025700
     49 H20          6.4940    -3.1910    -1.8900 h1         1 0VE       0.025700
     50 H21          7.9870     0.5920     2.6290 hc         1 0VE       0.039033
     51 H22          6.2920     0.1520     2.9310 hc         1 0VE       0.039033
     52 H23          7.4610    -1.0930     2.4400 hc         1 0VE       0.039033
@<TRIPOS>BOND
     1     1     2 1   
     2     1     4 1   
     3     1    10 1   
     4     2     3 1   
     5     2     7 2   
     6     3     5 2   
     7     3     9 1   
     8     4     6 2   
     9     4     8 1   
    10     5     6 1   
    11     6    30 1   
    12     7    11 1   
    13     8    13 ar  
    14     8    22 ar  
    15     9    15 1   
    16     9    31 1   
    17    10    11 2   
    18    10    32 1   
    19    11    33 1   
    20    12    14 1   
    21    12    16 ar  
    22    12    17 ar  
    23    13    18 ar  
    24    13    34 1   
    25    14    25 1   
    26    14    26 1   
    27    15    19 ar  
    28    15    20 ar  
    29    16    19 ar  
    30    16    35 1   
    31    17    20 ar  
    32    17    36 1   
    33    18    21 1   
    34    18    27 ar  
    35    19    37 1   
    36    20    38 1   
    37    21    39 1   
    38    22    24 ar  
    39    22    40 1   
    40    23    28 1   
    41    23    41 1   
    42    24    27 ar  
    43    24    42 1   
    44    25    28 1   
    45    25    43 1   
    46    25    44 1   
    47    26    29 1   
    48    26    45 1   
    49    26    46 1   
    50    27    47 1   
    51    28    48 1   
    52    28    49 1   
    53    29    50 1   
    54    29    51 1   
    55    29    52 1   
@<TRIPOS>SUBSTRUCTURE
     1 0VE         1 TEMP              0 ****  ****    0 ROOT
