@<TRIPOS>MOLECULE
0VF
   60    64     1     0     0
SMALL
abcg2


@<TRIPOS>ATOM
      1 C1           0.6540    -1.3490    -1.4400 ca         1 0VF       0.445900
      2 N2           1.7250    -0.8520    -0.7910 nb         1 0VF      -0.329000
      3 N3           0.3370    -2.6410    -1.5800 nb         1 0VF      -0.240000
      4 C4           2.5760    -1.6880    -0.2320 ca         1 0VF       0.483900
      5 C5           1.2000    -3.4600    -1.0030 ca         1 0VF       0.217300
      6 C6           2.3420    -3.0840    -0.3130 ca         1 0VF      -0.153600
      7 N7          -0.1680    -0.4500    -1.9990 nh         1 0VF      -0.766300
      8 N8           3.1060    -4.0910     0.2040 nc         1 0VF      -0.505100
      9 S9           1.1010    -5.1940    -0.9840 ss         1 0VF      -0.175500
     10 N11          3.6740    -1.2600     0.4220 nu         1 0VF      -0.917900
     11 C12          2.5830    -5.2330    -0.0670 cd         1 0VF       0.336100
     12 C14         -7.1280     2.0710     3.2170 c          1 0VF       0.711600
     13 C15          5.4220     0.1060     1.2580 ca         1 0VF      -0.227000
     14 C16          6.0000     1.3240     1.5580 ca         1 0VF       0.137100
     15 C17         -1.3890    -0.8120    -2.6960 c5         1 0VF       0.211800
     16 C18         -4.8650     0.7790    -0.2470 ca         1 0VF      -0.189600
     17 C19          4.1540     0.0310     0.6590 ca         1 0VF       0.310000
     18 C20         -6.3320     1.6160     1.9970 ca         1 0VF      -0.106600
     19 C21          0.0810     0.9830    -1.9890 c5         1 0VF       0.232800
     20 C22         -2.1220     0.5240    -2.8370 c5         1 0VF       0.106700
     21 C23          5.3130     2.5180     1.2540 ca         1 0VF       0.083100
     22 O24         -4.6080    -0.5510    -2.1970 o          1 0VF      -0.628100
     23 O25         -7.9460     1.2550     3.6800 o          1 0VF      -0.714000
     24 C26         -0.9680     1.5150    -2.9610 c5         1 0VF      -0.116400
     25 C27         -5.8040    -0.0660     0.3420 ca         1 0VF      -0.102000
     26 C28         -4.6800     2.0530     0.2870 ca         1 0VF      -0.102000
     27 C29         -5.4070     2.4630     1.3930 ca         1 0VF      -0.100000
     28 C30         -6.5190     0.3470     1.4540 ca         1 0VF      -0.100000
     29 C31          4.0670     2.4320     0.6650 ca         1 0VF      -0.145000
     30 O32         -6.8890     3.2180     3.6380 o          1 0VF      -0.714000
     31 C33          3.4780     1.2030     0.3630 ca         1 0VF      -0.127000
     32 O35          5.9530     3.6610     1.5740 os         1 0VF      -0.324100
     33 C36          7.9560     0.3180     2.4360 c3         1 0VF       0.146900
     34 C37          5.2930     4.8810     1.3090 c3         1 0VF       0.145900
     35 H1           4.2590    -2.0030     0.7760 hn         1 0VF       0.518000
     36 H2           3.0060    -6.1810     0.2350 h5         1 0VF       0.053800
     37 H3          -2.5230     1.4500    -0.9730 hn         1 0VF       0.322500
     38 H4           5.9450    -0.8150     1.4840 ha         1 0VF       0.117000
     39 H5          -1.1750    -1.2340    -3.6830 h1         1 0VF       0.073700
     40 H6          -1.9640    -1.5500    -2.1380 h1         1 0VF       0.073700
     41 H7          -0.0420     1.3970    -0.9830 h1         1 0VF       0.055700
     42 H8           1.0970     1.2160    -2.3110 h1         1 0VF       0.055700
     43 H9          -2.7630     0.5260    -3.7180 h1         1 0VF       0.084700
     44 H10         -1.2600     2.5430    -2.7470 hc         1 0VF       0.060200
     45 H11         -0.5850     1.4850    -3.9820 hc         1 0VF       0.060200
     46 H12         -5.9690    -1.0540    -0.0660 ha         1 0VF       0.095500
     47 H13         -3.9880     2.7510    -0.1690 ha         1 0VF       0.095500
     48 H14         -5.2590     3.4590     1.7890 ha         1 0VF       0.131500
     49 H15         -7.2350    -0.3250     1.9080 ha         1 0VF       0.131500
     50 H16          3.5140     3.3290     0.4200 ha         1 0VF       0.120000
     51 H18          2.5040     1.1810    -0.0960 ha         1 0VF       0.153000
     52 H19          7.4380    -0.3320     3.1460 h1         1 0VF       0.038033
     53 H20          8.1940    -0.2600     1.5390 h1         1 0VF       0.038033
     54 H21          8.8830     0.6600     2.8880 h1         1 0VF       0.038033
     55 H22          5.0890     5.0140     0.2430 h1         1 0VF       0.038033
     56 H23          4.3510     4.9650     1.8590 h1         1 0VF       0.038033
     57 H24          5.9620     5.6730     1.6380 h1         1 0VF       0.038033
     58 N13         -2.9220     0.8440    -1.6720 ns         1 0VF      -0.514900
     59 C10         -4.1300     0.2950    -1.4530 c          1 0VF       0.622700
     60 O34          7.2060     1.4760     2.1320 os         1 0VF      -0.322100
@<TRIPOS>BOND
     1     1     2 ar  
     2     1     3 ar  
     3     1     7 1   
     4     2     4 ar  
     5     3     5 ar  
     6     4     6 ar  
     7     4    10 1   
     8     5     6 ar  
     9     5     9 1   
    10     6     8 1   
    11     7    15 1   
    12     7    19 1   
    13     8    11 2   
    14     9    11 1   
    15    10    17 1   
    16    10    35 1   
    17    11    36 1   
    18    12    18 1   
    19    12    23 1   
    20    12    30 1   
    21    13    14 ar  
    22    13    17 ar  
    23    13    38 1   
    24    14    21 ar  
    25    14    60 1   
    26    15    20 1   
    27    15    39 1   
    28    15    40 1   
    29    16    25 ar  
    30    16    26 ar  
    31    16    59 1   
    32    17    31 ar  
    33    18    27 ar  
    34    18    28 ar  
    35    19    24 1   
    36    19    41 1   
    37    19    42 1   
    38    20    24 1   
    39    20    43 1   
    40    20    58 1   
    41    21    29 ar  
    42    21    32 1   
    43    22    59 2   
    44    24    44 1   
    45    24    45 1   
    46    25    28 ar  
    47    25    46 1   
    48    26    27 ar  
    49    26    47 1   
    50    27    48 1   
    51    28    49 1   
    52    29    31 ar  
    53    29    50 1   
    54    31    51 1   
    55    32    34 1   
    56    33    52 1   
    57    33    53 1   
    58    33    54 1   
    59    33    60 1   
    60    34    55 1   
    61    34    56 1   
    62    34    57 1   
    63    37    58 1   
    64    58    59 1   
@<TRIPOS>SUBSTRUCTURE
     1 0VF         1 TEMP              0 ****  ****    0 ROOT
