@<TRIPOS>MOLECULE
0VF
   60    64     1     0     0
SMALL
No Charge or Current Charge


@<TRIPOS>ATOM
      1 C1           0.6020    -1.4110    -1.4260 ca         1 0VF       0.445900
      2 N2           1.6390    -0.8700    -0.7550 nb         1 0VF      -0.329000
      3 N3           0.2750    -2.7210    -1.4670 nb         1 0VF      -0.240000
      4 C4           2.4120    -1.7130    -0.0530 ca         1 0VF       0.483900
      5 C5           1.0780    -3.5350    -0.7660 ca         1 0VF       0.217300
      6 C6           2.1670    -3.1010    -0.0390 ca         1 0VF      -0.153600
      7 N7          -0.2160    -0.5200    -2.1550 nh         1 0VF      -0.766300
      8 N8           2.9190    -4.0760     0.6330 nc         1 0VF      -0.505100
      9 S9           0.8760    -5.2690    -0.6710 ss         1 0VF      -0.175500
     10 N11          3.5080    -1.2060     0.6360 nu         1 0VF      -0.917900
     11 C12          2.3270    -5.2530     0.3690 cd         1 0VF       0.336100
     12 C14         -6.6440     1.9940     3.3530 c          1 0VF       0.711600
     13 C15          5.3850     0.1680     1.2010 ca         1 0VF      -0.227000
     14 C16          5.9670     1.4260     1.4760 ca         1 0VF       0.137100
     15 C17         -1.4550    -0.9370    -2.8830 c5         1 0VF       0.211800
     16 C18         -4.7330     0.7800    -0.3990 ca         1 0VF      -0.189600
     17 C19          4.0220     0.0650     0.8900 ca         1 0VF       0.310000
     18 C20         -5.9800     1.5720     2.0490 ca         1 0VF      -0.106600
     19 C21          0.0250     0.9460    -2.2330 c5         1 0VF       0.232800
     20 C22         -2.1550     0.4230    -3.2090 c5         1 0VF       0.106700
     21 C23          5.1670     2.5930     1.4500 ca         1 0VF       0.083100
     22 O24         -4.6590    -0.4390    -2.4700 o          1 0VF      -0.628100
     23 O25         -7.7510     1.5460     3.6180 o          1 0VF      -0.714000
     24 C26         -0.9450     1.3850    -3.3670 c5         1 0VF      -0.116400
     25 C27         -6.0110     0.2940    -0.0430 ca         1 0VF      -0.102000
     26 C28         -4.0850     1.6700     0.4920 ca         1 0VF      -0.102000
     27 C29         -4.7010     2.0580     1.6950 ca         1 0VF      -0.100000
     28 C30         -6.6240     0.6830     1.1600 ca         1 0VF      -0.100000
     29 C31          3.7900     2.4850     1.1530 ca         1 0VF      -0.145000
     30 O32         -6.0490     2.7680     4.0910 o          1 0VF      -0.714000
     31 C33          3.2270     1.2260     0.8800 ca         1 0VF      -0.127000
     32 O35          5.7610     3.8150     1.7240 os         1 0VF      -0.324100
     33 C36          8.2080     0.4300     1.8270 c3         1 0VF       0.146900
     34 C37          5.0240     5.0510     1.7190 c3         1 0VF       0.145900
     35 H1           4.0900    -1.9700     0.9780 hn         1 0VF       0.518000
     36 H2           2.6860    -6.1990     0.7560 h5         1 0VF       0.053800
     37 H3          -2.4500     1.4840    -1.2970 hn         1 0VF       0.322500
     38 H4           5.9840    -0.7370     1.2150 ha         1 0VF       0.117000
     39 H5          -1.2000    -1.4710    -3.8090 h1         1 0VF       0.073700
     40 H6          -2.1010    -1.5930    -2.2830 h1         1 0VF       0.073700
     41 H7          -0.2200     1.4360    -1.2800 h1         1 0VF       0.055700
     42 H8           1.0660     1.1910    -2.4880 h1         1 0VF       0.055700
     43 H9          -2.8030     0.3820    -4.0960 h1         1 0VF       0.084700
     44 H10         -1.2210     2.4430    -3.2990 hc         1 0VF       0.060200
     45 H11         -0.4730     1.2410    -4.3450 hc         1 0VF       0.060200
     46 H12         -6.5390    -0.3920    -0.7010 ha         1 0VF       0.095500
     47 H13         -3.1010     2.0730     0.2710 ha         1 0VF       0.095500
     48 H14         -4.1750     2.7430     2.3560 ha         1 0VF       0.131500
     49 H15         -7.6100     0.2880     1.3990 ha         1 0VF       0.131500
     50 H16          3.1430     3.3570     1.1360 ha         1 0VF       0.120000
     51 H18          2.1630     1.1630     0.6800 ha         1 0VF       0.153000
     52 H19          7.8850    -0.2910     2.5890 h1         1 0VF       0.038033
     53 H20          8.2500    -0.0780     0.8550 h1         1 0VF       0.038033
     54 H21          9.2220     0.7620     2.0810 h1         1 0VF       0.038033
     55 H22          4.5840     5.2390     0.7320 h1         1 0VF       0.038033
     56 H23          4.2220     5.0300     2.4670 h1         1 0VF       0.038033
     57 H24          5.6900     5.8900     1.9590 h1         1 0VF       0.038033
     58 N13         -2.8540     0.8640    -1.9840 ns         1 0VF      -0.514900
     59 C10         -4.1000     0.3380    -1.7060 c          1 0VF       0.622700
     60 O34          7.3140     1.5560     1.7760 os         1 0VF      -0.322100
@<TRIPOS>BOND
     1     1     2 ar  
     2     1     3 ar  
     3     1     7 1   
     4     2     4 ar  
     5     3     5 ar  
     6     4     6 ar  
     7     4    10 1   
     8     5     6 ar  
     9     5     9 1   
    10     6     8 1   
    11     7    15 1   
    12     7    19 1   
    13     8    11 2   
    14     9    11 1   
    15    10    17 1   
    16    10    35 1   
    17    11    36 1   
    18    12    18 1   
    19    12    23 1   
    20    12    30 1   
    21    13    14 ar  
    22    13    17 ar  
    23    13    38 1   
    24    14    21 ar  
    25    14    60 1   
    26    15    20 1   
    27    15    39 1   
    28    15    40 1   
    29    16    25 ar  
    30    16    26 ar  
    31    16    59 1   
    32    17    31 ar  
    33    18    27 ar  
    34    18    28 ar  
    35    19    24 1   
    36    19    41 1   
    37    19    42 1   
    38    20    24 1   
    39    20    43 1   
    40    20    58 1   
    41    21    29 ar  
    42    21    32 1   
    43    22    59 2   
    44    24    44 1   
    45    24    45 1   
    46    25    28 ar  
    47    25    46 1   
    48    26    27 ar  
    49    26    47 1   
    50    27    48 1   
    51    28    49 1   
    52    29    31 ar  
    53    29    50 1   
    54    31    51 1   
    55    32    34 1   
    56    33    52 1   
    57    33    53 1   
    58    33    54 1   
    59    33    60 1   
    60    34    55 1   
    61    34    56 1   
    62    34    57 1   
    63    37    58 1   
    64    58    59 1   
@<TRIPOS>SUBSTRUCTURE
     1 0VF         1 TEMP              0 ****  ****    0 ROOT
