@<TRIPOS>MOLECULE
0VG
   50    54     1     0     0
SMALL
bcc


@<TRIPOS>ATOM
      1 C1           1.2900    -1.7060     0.2990 cc         1 0VG      -0.106300
      2 N2           2.6230    -2.0550     0.2960 na         1 0VG       0.205200
      3 C3           0.9860    -0.3220     0.1740 cc         1 0VG       0.282600
      4 N4           3.6720    -1.2390     0.2300 nc         1 0VG      -0.505800
      5 C5           2.0600     0.5330     0.1250 cd         1 0VG      -0.357300
      6 C6           3.3840     0.0330     0.1570 cd         1 0VG       0.486800
      7 N7          -2.5590     0.1390     0.0060 nb         1 0VG      -0.812000
      8 C8          -3.7170    -0.2360    -0.5430 ca         1 0VG       0.735200
      9 N9          -4.8410     0.3460    -0.0680 nh         1 0VG      -0.802300
     10 N10          0.5260    -2.7660     0.4600 nd         1 0VG      -0.251600
     11 N11         -0.2970     0.1440     0.1920 nu         1 0VG      -0.741300
     12 C12         -1.4250    -0.3850    -0.4330 ca         1 0VG       0.718200
     13 C13          2.6870    -3.4050     0.4540 cc         1 0VG      -0.179100
     14 C14          1.3810    -3.8120     0.5520 cd         1 0VG      -0.015400
     15 C15          4.5370     0.9520     0.0720 ca         1 0VG      -0.152500
     16 C16         -4.8540     1.2750     1.0600 c5         1 0VG       0.250500
     17 C17         -6.1700    -0.0130    -0.5300 c5         1 0VG       0.230800
     18 C18         -3.7610    -1.2020    -1.5690 ca         1 0VG      -0.349300
     19 C19         -1.3540    -1.3120    -1.4660 ca         1 0VG      -0.316300
     20 C20         -2.5620    -1.7190    -2.0150 ca         1 0VG      -0.029000
     21 C21         -7.0850     0.9370     0.2340 c5         1 0VG      -0.092400
     22 C22         -6.3110     1.2010     1.5220 c5         1 0VG      -0.095400
     23 C23          5.7260     0.5370    -0.5300 ca         1 0VG      -0.096500
     24 C24          4.4630     2.2410     0.6000 ca         1 0VG      -0.096500
     25 C25         -4.4300     2.6830     0.6590 c3         1 0VG      -0.100100
     26 C26          6.8120     1.3950    -0.6070 ca         1 0VG      -0.135000
     27 C27          5.5520     3.0960     0.5270 ca         1 0VG      -0.135000
     28 C28          6.7290     2.6780    -0.0790 ca         1 0VG      -0.113000
     29 H1           1.8930     1.5960     0.0130 ha         1 0VG       0.151000
     30 H2          -0.4130     1.0980     0.5010 hn         1 0VG       0.449800
     31 H3           3.6240    -3.9330     0.4930 h4         1 0VG       0.192000
     32 H4           1.0260    -4.8220     0.6890 h4         1 0VG       0.179000
     33 H5          -4.1790     0.9140     1.8390 h1         1 0VG       0.073700
     34 H6          -6.2660     0.1040    -1.6120 h1         1 0VG       0.043200
     35 H7          -6.3990    -1.0580    -0.2930 h1         1 0VG       0.043200
     36 H8          -4.6950    -1.5260    -2.0050 ha         1 0VG       0.140000
     37 H9          -0.4150    -1.6900    -1.8390 ha         1 0VG       0.152000
     38 H10         -2.5630    -2.4460    -2.8180 ha         1 0VG       0.131000
     39 H11         -7.2280     1.8630    -0.3270 hc         1 0VG       0.052700
     40 H12         -8.0700     0.5050     0.4070 hc         1 0VG       0.052700
     41 H13         -6.4410     0.3670     2.2150 hc         1 0VG       0.054200
     42 H14         -6.6290     2.1090     2.0340 hc         1 0VG       0.054200
     43 H15          5.7960    -0.4570    -0.9510 ha         1 0VG       0.140000
     44 H16          3.5590     2.5800     1.0900 ha         1 0VG       0.140000
     45 H17         -5.0870     3.0940    -0.1090 hc         1 0VG       0.040367
     46 H18         -4.4640     3.3470     1.5230 hc         1 0VG       0.040367
     47 H19         -3.4120     2.6850     0.2720 hc         1 0VG       0.040367
     48 H20          7.7230     1.0630    -1.0860 ha         1 0VG       0.133500
     49 H21          5.4820     4.0900     0.9490 ha         1 0VG       0.133500
     50 H22          7.5770     3.3470    -0.1380 ha         1 0VG       0.132000
@<TRIPOS>BOND
     1     1     2 1   
     2     1     3 1   
     3     1    10 2   
     4     2     4 1   
     5     2    13 1   
     6     3     5 2   
     7     3    11 1   
     8     4     6 2   
     9     5     6 1   
    10     5    29 1   
    11     6    15 1   
    12     7     8 ar  
    13     7    12 ar  
    14     8     9 1   
    15     8    18 ar  
    16     9    16 1   
    17     9    17 1   
    18    10    14 1   
    19    11    12 1   
    20    11    30 1   
    21    12    19 ar  
    22    13    14 2   
    23    13    31 1   
    24    14    32 1   
    25    15    23 ar  
    26    15    24 ar  
    27    16    22 1   
    28    16    25 1   
    29    16    33 1   
    30    17    21 1   
    31    17    34 1   
    32    17    35 1   
    33    18    20 ar  
    34    18    36 1   
    35    19    20 ar  
    36    19    37 1   
    37    20    38 1   
    38    21    22 1   
    39    21    39 1   
    40    21    40 1   
    41    22    41 1   
    42    22    42 1   
    43    23    26 ar  
    44    23    43 1   
    45    24    27 ar  
    46    24    44 1   
    47    25    45 1   
    48    25    46 1   
    49    25    47 1   
    50    26    28 ar  
    51    26    48 1   
    52    27    28 ar  
    53    27    49 1   
    54    28    50 1   
@<TRIPOS>SUBSTRUCTURE
     1 0VG         1 TEMP              0 ****  ****    0 ROOT
