@<TRIPOS>MOLECULE
0VG
   50    54     1     0     0
SMALL
No Charge or Current Charge


@<TRIPOS>ATOM
      1 C1           1.3870    -1.9240     0.4010 cc         1 0VG      -0.157000
      2 N2           2.7150    -2.2150     0.3370 na         1 0VG       0.255900
      3 C3           0.9750    -0.5630     0.3260 cc         1 0VG       0.421000
      4 N4           3.7470    -1.3170     0.2180 nc         1 0VG      -0.505800
      5 C5           1.9530     0.3800     0.2190 cd         1 0VG      -0.274000
      6 C6           3.3320    -0.0410     0.1730 cd         1 0VG       0.421500
      7 N7          -2.5160    -0.0040     0.0650 nb         1 0VG      -0.812000
      8 C8          -3.6660    -0.2730    -0.5730 ca         1 0VG       0.669900
      9 N9          -4.7930     0.4240    -0.0960 nh         1 0VG      -0.802300
     10 N10          0.7000    -3.0500     0.5470 nd         1 0VG      -0.251600
     11 N11         -0.3560    -0.2450     0.3740 nu         1 0VG      -0.934900
     12 C12         -1.4340    -0.6480    -0.3440 ca         1 0VG       0.652900
     13 C13          2.9220    -3.5570     0.4270 cc         1 0VG      -0.229100
     14 C14          1.6460    -4.0670     0.5590 cd         1 0VG      -0.065400
     15 C15          4.4030     0.9750     0.0450 ca         1 0VG      -0.152500
     16 C16         -4.7590     1.4010     1.0280 c5         1 0VG       0.250500
     17 C17         -6.1780     0.1320    -0.5520 c5         1 0VG       0.230800
     18 C18         -3.7470    -1.1870    -1.6420 ca         1 0VG      -0.266000
     19 C19         -1.3950    -1.5550    -1.4080 ca         1 0VG      -0.233000
     20 C20         -2.5880    -1.8430    -2.0780 ca         1 0VG      -0.011000
     21 C21         -7.0110     1.2140     0.1800 c5         1 0VG      -0.092400
     22 C22         -6.2350     1.3450     1.5140 c5         1 0VG      -0.095400
     23 C23          5.5960     0.6930    -0.6650 ca         1 0VG      -0.078500
     24 C24          4.2880     2.2230     0.7000 ca         1 0VG      -0.078500
     25 C25         -4.2950     2.8040     0.5650 c3         1 0VG      -0.100100
     26 C26          6.6230     1.6500    -0.7500 ca         1 0VG      -0.117000
     27 C27          5.3170     3.1770     0.6130 ca         1 0VG      -0.117000
     28 C28          6.4830     2.8930    -0.1150 ca         1 0VG      -0.095000
     29 H1           1.6910     1.4260     0.1490 ha         1 0VG       0.133000
     30 H2          -0.5690     0.6160     0.8610 hn         1 0VG       0.505000
     31 H3           3.9020    -4.0180     0.3960 h4         1 0VG       0.242000
     32 H4           1.3540    -5.1100     0.6650 h4         1 0VG       0.229000
     33 H5          -4.0970     1.0740     1.8430 h1         1 0VG       0.073700
     34 H6          -6.2920     0.2170    -1.6410 h1         1 0VG       0.043200
     35 H7          -6.4850    -0.8780    -0.2440 h1         1 0VG       0.043200
     36 H8          -4.6900    -1.3830    -2.1390 ha         1 0VG       0.122000
     37 H9          -0.4640    -2.0170    -1.7140 ha         1 0VG       0.134000
     38 H10         -2.6140    -2.5450    -2.9100 ha         1 0VG       0.113000
     39 H11         -7.0230     2.1560    -0.3790 hc         1 0VG       0.052700
     40 H12         -8.0540     0.9080     0.3230 hc         1 0VG       0.052700
     41 H13         -6.4030     0.4730     2.1560 hc         1 0VG       0.054200
     42 H14         -6.5250     2.2320     2.0890 hc         1 0VG       0.054200
     43 H15          5.7270    -0.2640    -1.1660 ha         1 0VG       0.122000
     44 H16          3.4050     2.4590     1.2900 ha         1 0VG       0.122000
     45 H17         -4.8980     3.1820    -0.2680 hc         1 0VG       0.040367
     46 H18         -4.3650     3.5260     1.3860 hc         1 0VG       0.040367
     47 H19         -3.2510     2.7820     0.2340 hc         1 0VG       0.040367
     48 H20          7.5290     1.4240    -1.3080 ha         1 0VG       0.115500
     49 H21          5.2130     4.1350     1.1180 ha         1 0VG       0.115500
     50 H22          7.2790     3.6320    -0.1800 ha         1 0VG       0.114000
@<TRIPOS>BOND
     1     1     2 1   
     2     1     3 1   
     3     1    10 2   
     4     2     4 1   
     5     2    13 1   
     6     3     5 2   
     7     3    11 1   
     8     4     6 2   
     9     5     6 1   
    10     5    29 1   
    11     6    15 1   
    12     7     8 ar  
    13     7    12 ar  
    14     8     9 1   
    15     8    18 ar  
    16     9    16 1   
    17     9    17 1   
    18    10    14 1   
    19    11    12 1   
    20    11    30 1   
    21    12    19 ar  
    22    13    14 2   
    23    13    31 1   
    24    14    32 1   
    25    15    23 ar  
    26    15    24 ar  
    27    16    22 1   
    28    16    25 1   
    29    16    33 1   
    30    17    21 1   
    31    17    34 1   
    32    17    35 1   
    33    18    20 ar  
    34    18    36 1   
    35    19    20 ar  
    36    19    37 1   
    37    20    38 1   
    38    21    22 1   
    39    21    39 1   
    40    21    40 1   
    41    22    41 1   
    42    22    42 1   
    43    23    26 ar  
    44    23    43 1   
    45    24    27 ar  
    46    24    44 1   
    47    25    45 1   
    48    25    46 1   
    49    25    47 1   
    50    26    28 ar  
    51    26    48 1   
    52    27    28 ar  
    53    27    49 1   
    54    28    50 1   
@<TRIPOS>SUBSTRUCTURE
     1 0VG         1 TEMP              0 ****  ****    0 ROOT
