@<TRIPOS>MOLECULE
0VH
   51    53     1     0     0
SMALL
bcc


@<TRIPOS>ATOM
      1 C1           3.1040    -0.1610    -1.2310 ca         1 0VH      -0.281300
      2 C2           4.4090    -0.0250    -1.6570 ca         1 0VH      -0.060000
      3 C3           5.3130     0.7090    -0.8980 ca         1 0VH      -0.277300
      4 C4           4.8600     1.3020     0.2720 ca         1 0VH       0.460600
      5 N5           3.6050     1.1570     0.6960 nb         1 0VH      -0.730000
      6 C6           2.7540     0.4360    -0.0180 ca         1 0VH       0.692200
      7 N7           1.4710     0.3910     0.5060 nu         1 0VH      -0.738300
      8 C8           5.7500     2.1780     1.1060 c3         1 0VH      -0.128700
      9 C9           0.4240    -0.4030     0.1130 ca         1 0VH       0.200300
     10 C10         -0.8420     0.1420     0.0520 ca         1 0VH      -0.381300
     11 C11         -1.9000    -0.6580    -0.3970 ca         1 0VH       0.667200
     12 N12         -1.6900    -1.9220    -0.8150 nb         1 0VH      -0.426000
     13 N13         -0.5060    -2.4340    -0.7060 nb         1 0VH      -0.267000
     14 C14          0.5360    -1.7720    -0.2340 ca         1 0VH       0.190800
     15 C15          1.7450    -2.6080     0.0390 c          1 0VH       0.589600
     16 O16          2.5470    -2.2980     0.9070 o          1 0VH      -0.597100
     17 N17          1.8570    -3.7080    -0.7200 nt         1 0VH      -0.652000
     18 N18         -3.1680    -0.2270    -0.4850 nu         1 0VH      -0.850900
     19 C19         -3.6060     1.1260    -0.2070 c6         1 0VH       0.243500
     20 C20         -4.9820     1.3520    -0.8460 c6         1 0VH       0.150500
     21 C21         -6.0770     0.5580    -0.1380 c6         1 0VH      -0.075400
     22 C22         -6.1120     0.8520     1.3570 c6         1 0VH      -0.074400
     23 C23         -4.7510     0.6050     1.9960 c6         1 0VH      -0.073400
     24 C24         -3.6660     1.4140     1.2970 c6         1 0VH      -0.087400
     25 N25         -4.9390     0.9800    -2.2510 n8         1 0VH      -0.898800
     26 C26          5.4010     3.6560     0.9430 c3         1 0VH      -0.084100
     27 H1           2.3840    -0.6990    -1.8330 ha         1 0VH       0.148000
     28 H2           4.7180    -0.4780    -2.5900 ha         1 0VH       0.135000
     29 H3           6.3390     0.8300    -1.2150 ha         1 0VH       0.141000
     30 H4           1.2250     1.2030     1.0520 hn         1 0VH       0.449800
     31 H5           5.6510     1.8930     2.1560 hc         1 0VH       0.054700
     32 H6           6.7920     2.0110     0.8270 hc         1 0VH       0.054700
     33 H7          -0.9890     1.1850     0.2970 ha         1 0VH       0.146000
     34 H8           1.0960    -3.9870    -1.3170 hn         1 0VH       0.319500
     35 H9           2.5440    -4.4040    -0.4830 hn         1 0VH       0.319500
     36 H10         -3.7710    -0.7910    -1.0670 hn         1 0VH       0.467800
     37 H11         -2.9060     1.8340    -0.6720 h1         1 0VH       0.039700
     38 H12         -5.2010     2.4210    -0.6970 h1         1 0VH       0.026700
     39 H13         -7.0410     0.8040    -0.5920 hc         1 0VH       0.049700
     40 H14         -5.9250    -0.5130    -0.3030 hc         1 0VH       0.049700
     41 H15         -6.4040     1.8950     1.5180 hc         1 0VH       0.042200
     42 H16         -6.8780     0.2390     1.8380 hc         1 0VH       0.042200
     43 H17         -4.7760     0.8640     3.0570 hc         1 0VH       0.050200
     44 H18         -4.5070    -0.4610     1.9430 hc         1 0VH       0.050200
     45 H19         -2.6940     1.2250     1.7580 hc         1 0VH       0.048200
     46 H20         -3.8610     2.4840     1.4270 hc         1 0VH       0.048200
     47 H21         -5.8450     1.1490    -2.6710 hn         1 0VH       0.347300
     48 H22         -4.2880     1.5790    -2.7460 hn         1 0VH       0.347300
     49 H24          5.5350     3.9810    -0.0900 hc         1 0VH       0.036033
     50 H25          4.3640     3.8450     1.2220 hc         1 0VH       0.036033
     51 H26          6.0360     4.2760     1.5750 hc         1 0VH       0.036033
@<TRIPOS>BOND
     1     1     2 ar  
     2     1     6 ar  
     3     1    27 1   
     4     2     3 ar  
     5     2    28 1   
     6     3     4 ar  
     7     3    29 1   
     8     4     5 ar  
     9     4     8 1   
    10     5     6 ar  
    11     6     7 1   
    12     7     9 1   
    13     7    30 1   
    14     8    26 1   
    15     8    31 1   
    16     8    32 1   
    17     9    10 ar  
    18     9    14 ar  
    19    10    11 ar  
    20    10    33 1   
    21    11    12 ar  
    22    11    18 1   
    23    12    13 ar  
    24    13    14 ar  
    25    14    15 1   
    26    15    16 2   
    27    15    17 1   
    28    17    34 1   
    29    17    35 1   
    30    18    19 1   
    31    18    36 1   
    32    19    20 1   
    33    19    24 1   
    34    19    37 1   
    35    20    21 1   
    36    20    25 1   
    37    20    38 1   
    38    21    22 1   
    39    21    39 1   
    40    21    40 1   
    41    22    23 1   
    42    22    41 1   
    43    22    42 1   
    44    23    24 1   
    45    23    43 1   
    46    23    44 1   
    47    24    45 1   
    48    24    46 1   
    49    25    47 1   
    50    25    48 1   
    51    26    49 1   
    52    26    50 1   
    53    26    51 1   
@<TRIPOS>SUBSTRUCTURE
     1 0VH         1 TEMP              0 ****  ****    0 ROOT
