@<TRIPOS>MOLECULE
0VH
   51    53     1     0     0
SMALL
No Charge or Current Charge


@<TRIPOS>ATOM
      1 C1           3.1250    -0.0860    -1.2840 ca         1 0VH      -0.198000
      2 C2           4.3480     0.3780    -1.7890 ca         1 0VH      -0.042000
      3 C3           5.1370     1.1790    -0.9490 ca         1 0VH      -0.194000
      4 C4           4.6740     1.4890     0.3450 ca         1 0VH       0.395300
      5 N5           3.4930     1.0410     0.8240 nb         1 0VH      -0.730000
      6 C6           2.7670     0.2620     0.0260 ca         1 0VH       0.626900
      7 N7           1.5910    -0.0830     0.6210 nu         1 0VH      -0.931900
      8 C8           5.4940     2.3720     1.2730 c3         1 0VH      -0.128700
      9 C9           0.4990    -0.8460     0.2020 ca         1 0VH       0.404000
     10 C10         -0.7440    -0.2070     0.2630 ca         1 0VH      -0.298000
     11 C11         -1.8640    -0.9010    -0.1980 ca         1 0VH       0.601900
     12 N12         -1.7760    -2.1510    -0.6840 nb         1 0VH      -0.426000
     13 N13         -0.5940    -2.7910    -0.7320 nb         1 0VH      -0.267000
     14 C14          0.5490    -2.1860    -0.2940 ca         1 0VH       0.125500
     15 C15          1.8190    -3.0330    -0.3080 c          1 0VH       0.522600
     16 O16          2.8390    -2.7770     0.3120 o          1 0VH      -0.597100
     17 N17          1.7920    -4.1810    -1.0350 nt         1 0VH      -0.585000
     18 N18         -3.1410    -0.3910    -0.2040 nu         1 0VH      -0.906100
     19 C19         -3.4970     1.0360    -0.1270 c6         1 0VH       0.243500
     20 C20         -4.8450     1.2910    -0.9090 c6         1 0VH       0.150500
     21 C21         -6.0820     0.7570    -0.1340 c6         1 0VH      -0.075400
     22 C22         -6.1380     1.3110     1.3090 c6         1 0VH      -0.074400
     23 C23         -4.8430     0.9730     2.0820 c6         1 0VH      -0.073400
     24 C24         -3.5940     1.5250     1.3480 c6         1 0VH      -0.087400
     25 N25         -4.8320     0.6960    -2.2760 n8         1 0VH      -1.009200
     26 C26          5.3530     3.8730     0.9460 c3         1 0VH      -0.084100
     27 H1           2.4700    -0.6930    -1.8990 ha         1 0VH       0.130000
     28 H2           4.6720     0.1300    -2.7980 ha         1 0VH       0.117000
     29 H3           6.0920     1.5660    -1.2950 ha         1 0VH       0.123000
     30 H4           1.4190     0.5140     1.4220 hn         1 0VH       0.505000
     31 H5           5.2020     2.2070     2.3180 hc         1 0VH       0.054700
     32 H6           6.5520     2.0920     1.2060 hc         1 0VH       0.054700
     33 H7          -0.8250     0.8090     0.6300 ha         1 0VH       0.128000
     34 H8           0.9540    -4.4360    -1.5390 hn         1 0VH       0.319500
     35 H9           2.6070    -4.7770    -1.0550 hn         1 0VH       0.319500
     36 H10         -3.7550    -0.9420    -0.8000 hn         1 0VH       0.523000
     37 H11         -2.7150     1.6220    -0.6340 h1         1 0VH       0.039700
     38 H12         -4.9630     2.3780    -1.0330 h1         1 0VH       0.026700
     39 H13         -7.0040     1.0330    -0.6650 hc         1 0VH       0.049700
     40 H14         -6.0620    -0.3410    -0.1000 hc         1 0VH       0.049700
     41 H15         -6.2850     2.4000     1.2850 hc         1 0VH       0.042200
     42 H16         -7.0060     0.8910     1.8360 hc         1 0VH       0.042200
     43 H17         -4.8930     1.3930     3.0960 hc         1 0VH       0.050200
     44 H18         -4.7540    -0.1160     2.2020 hc         1 0VH       0.050200
     45 H19         -2.6900     1.2540     1.9070 hc         1 0VH       0.048200
     46 H20         -3.6350     2.6220     1.3530 hc         1 0VH       0.048200
     47 H21         -5.6690     1.0110    -2.7810 hn         1 0VH       0.402500
     48 H22         -4.0610     1.1130    -2.8110 hn         1 0VH       0.402500
     49 H24          5.6890     4.0810    -0.0770 hc         1 0VH       0.036033
     50 H25          4.3080     4.1920     1.0390 hc         1 0VH       0.036033
     51 H26          5.9580     4.4750     1.6350 hc         1 0VH       0.036033
@<TRIPOS>BOND
     1     1     2 ar  
     2     1     6 ar  
     3     1    27 1   
     4     2     3 ar  
     5     2    28 1   
     6     3     4 ar  
     7     3    29 1   
     8     4     5 ar  
     9     4     8 1   
    10     5     6 ar  
    11     6     7 1   
    12     7     9 1   
    13     7    30 1   
    14     8    26 1   
    15     8    31 1   
    16     8    32 1   
    17     9    10 ar  
    18     9    14 ar  
    19    10    11 ar  
    20    10    33 1   
    21    11    12 ar  
    22    11    18 1   
    23    12    13 ar  
    24    13    14 ar  
    25    14    15 1   
    26    15    16 2   
    27    15    17 1   
    28    17    34 1   
    29    17    35 1   
    30    18    19 1   
    31    18    36 1   
    32    19    20 1   
    33    19    24 1   
    34    19    37 1   
    35    20    21 1   
    36    20    25 1   
    37    20    38 1   
    38    21    22 1   
    39    21    39 1   
    40    21    40 1   
    41    22    23 1   
    42    22    41 1   
    43    22    42 1   
    44    23    24 1   
    45    23    43 1   
    46    23    44 1   
    47    24    45 1   
    48    24    46 1   
    49    25    47 1   
    50    25    48 1   
    51    26    49 1   
    52    26    50 1   
    53    26    51 1   
@<TRIPOS>SUBSTRUCTURE
     1 0VH         1 TEMP              0 ****  ****    0 ROOT
