@<TRIPOS>MOLECULE
0VI
   64    66     1     0     0
SMALL
abcg2


@<TRIPOS>ATOM
      1 C14         21.5760     6.2470     5.6800 ca         1 0VI       0.343800
      2 C11         23.7900     6.4620     6.2890 c2         1 0VI       0.444300
      3 N12         23.7730     6.4790     5.0060 n2         1 0VI      -0.506100
      4 C01         21.4720     7.8830    10.2330 ca         1 0VI      -0.198500
      5 C02         21.2990     9.1900     9.8100 ca         1 0VI       0.084100
      6 C03         21.4740     9.5990     8.4970 ca         1 0VI      -0.198500
      7 C04         21.8430     8.6280     7.5670 ca         1 0VI       0.203100
      8 C05         22.0230     7.2930     7.9450 ca         1 0VI      -0.183300
      9 C06         21.8410     6.9270     9.2830 ca         1 0VI       0.203100
     10 C10         22.4250     6.2770     6.9100 c5         1 0VI      -0.132000
     11 C15         21.9110     6.3700     3.3380 ca         1 0VI       0.484000
     12 C17         19.8250     6.0880     4.3000 ca         1 0VI       0.279300
     13 C19         18.3570     5.9190     4.1350 c3         1 0VI      -0.156400
     14 C20         25.0380     6.5920     7.0690 c3         1 0VI      -0.136400
     15 C24         21.8480     4.9570     0.4960 c3         1 0VI      -0.094900
     16 C25         21.1920     4.8580    -0.8790 c3         1 0VI      -0.149900
     17 C26         21.0460     3.4390    -1.3560 c3         1 0VI       0.293500
     18 C27         24.4260     8.2630     2.5070 c3         1 0VI      -0.094900
     19 C28         23.8230     9.2500     1.5090 c3         1 0VI      -0.149900
     20 C29         24.2150    10.6760     1.7840 c3         1 0VI       0.293500
     21 C37         21.8400    10.1970     5.7460 c3         1 0VI       0.149400
     22 F30         20.4920     3.3780    -2.5900 f          1 0VI      -0.109167
     23 F31         22.2330     2.7920    -1.4360 f          1 0VI      -0.109167
     24 F32         20.2570     2.6930    -0.5450 f          1 0VI      -0.109167
     25 F33         25.5560    10.8660     1.7620 f          1 0VI      -0.109167
     26 F34         23.6920    11.5230     0.8660 f          1 0VI      -0.109167
     27 F35         23.7890    11.1120     2.9940 f          1 0VI      -0.109167
     28 N13         22.4210     6.3530     4.6130 na         1 0VI      -0.183600
     29 N16         20.5760     6.2040     3.2290 nb         1 0VI      -0.275000
     30 N18         20.2940     6.1140     5.5820 nb         1 0VI      -0.173000
     31 N21         22.6320     6.5320     2.2400 nh         1 0VI      -0.297500
     32 O07         22.0430     5.6240     9.5780 os         1 0VI      -0.378100
     33 BR1         20.7930    10.5050    11.1070 br         1 0VI      -0.056100
     34 H11         21.3250     7.6190    11.2680 ha         1 0VI       0.152000
     35 H12         21.3320    10.6290     8.2130 ha         1 0VI       0.152000
     36 H13         22.3920     5.2840     7.3720 hc         1 0VI       0.151700
     37 H92         18.0780     5.9230     3.0850 hc         1 0VI       0.094033
     38 H93         18.0470     4.9820     4.6020 hc         1 0VI       0.094033
     39 H91         17.8410     6.7250     4.6630 hc         1 0VI       0.094033
     40 H02         25.8970     6.6960     6.4100 hc         1 0VI       0.086700
     41 H03         24.9680     7.4650     7.7230 hc         1 0VI       0.086700
     42 H01         25.1650     5.7170     7.7100 hc         1 0VI       0.086700
     43 H21         24.5980     6.1530     2.8880 h1         1 0VI       0.085450
     44 H22         24.4030     6.5490     1.1890 h1         1 0VI       0.085450
     45 H31         22.5400     6.9850     0.2210 h1         1 0VI       0.085450
     46 H32         20.9660     6.8680     1.0030 h1         1 0VI       0.085450
     47 H42         21.2640     4.4040     1.2320 hc         1 0VI       0.075700
     48 H41         22.8480     4.5190     0.4660 hc         1 0VI       0.075700
     49 H51         21.7790     5.3880    -1.6310 hc         1 0VI       0.083700
     50 H52         20.1910     5.2950    -0.8660 hc         1 0VI       0.083700
     51 H74         25.5150     8.3400     2.4960 hc         1 0VI       0.075700
     52 H75         24.0970     8.5050     3.5180 hc         1 0VI       0.075700
     53 H82         22.7330     9.2190     1.5300 hc         1 0VI       0.083700
     54 H81         24.1470     9.0240     0.4910 hc         1 0VI       0.083700
     55 H63         22.0610     4.1150    10.9140 h1         1 0VI       0.058367
     56 H62         22.5490     5.6860    11.5990 h1         1 0VI       0.058367
     57 H61         20.8270     5.3580    11.2500 h1         1 0VI       0.058367
     58 H71         22.0470    10.1350     4.6820 h1         1 0VI       0.058367
     59 H72         20.8060    10.5080     5.9100 h1         1 0VI       0.058367
     60 H73         22.5220    10.9070     6.2160 h1         1 0VI       0.058367
     61 O08         22.0550     8.8780     6.2560 os         1 0VI      -0.378100
     62 C22         24.0830     6.8080     2.1960 c3         1 0VI       0.071100
     63 C23         21.9500     6.4150     0.9340 c3         1 0VI       0.071100
     64 C36         21.8540     5.1810    10.9260 c3         1 0VI       0.149400
@<TRIPOS>BOND
     1     1    10 1   
     2     1    28 1   
     3     1    30 ar  
     4     2     3 2   
     5     2    10 1   
     6     2    14 1   
     7     3    28 1   
     8     4     5 ar  
     9     4     9 ar  
    10     4    34 1   
    11     5     6 ar  
    12     5    33 1   
    13     6     7 ar  
    14     6    35 1   
    15     7     8 ar  
    16     7    61 1   
    17     8     9 ar  
    18     8    10 1   
    19     9    32 1   
    20    10    36 1   
    21    11    28 2   
    22    11    29 ar  
    23    11    31 1   
    24    12    13 1   
    25    12    29 ar  
    26    12    30 ar  
    27    13    37 1   
    28    13    38 1   
    29    13    39 1   
    30    14    40 1   
    31    14    41 1   
    32    14    42 1   
    33    15    16 1   
    34    15    47 1   
    35    15    48 1   
    36    15    63 1   
    37    16    17 1   
    38    16    49 1   
    39    16    50 1   
    40    17    22 1   
    41    17    23 1   
    42    17    24 1   
    43    18    19 1   
    44    18    51 1   
    45    18    52 1   
    46    18    62 1   
    47    19    20 1   
    48    19    53 1   
    49    19    54 1   
    50    20    25 1   
    51    20    26 1   
    52    20    27 1   
    53    21    58 1   
    54    21    59 1   
    55    21    60 1   
    56    21    61 1   
    57    31    62 1   
    58    31    63 1   
    59    32    64 1   
    60    43    62 1   
    61    44    62 1   
    62    45    63 1   
    63    46    63 1   
    64    55    64 1   
    65    56    64 1   
    66    57    64 1   
@<TRIPOS>SUBSTRUCTURE
     1 0VI         1 TEMP              0 ****  ****    0 ROOT
