@<TRIPOS>MOLECULE
0VI
   64    66     1     0     0
SMALL
No Charge or Current Charge


@<TRIPOS>ATOM
      1 C14         21.3100     6.3310     5.5790 ca         1 0VI       0.343800
      2 C11         23.4840     6.0540     6.3280 c2         1 0VI       0.444300
      3 N12         23.5410     6.1590     5.0490 n2         1 0VI      -0.506100
      4 C01         21.9690     7.9790    10.2840 ca         1 0VI      -0.198500
      5 C02         21.8240     9.3140     9.8980 ca         1 0VI       0.084100
      6 C03         21.7620     9.6520     8.5440 ca         1 0VI      -0.198500
      7 C04         21.8380     8.6500     7.5550 ca         1 0VI       0.203100
      8 C05         21.9730     7.2850     7.9300 ca         1 0VI      -0.183300
      9 C06         22.0470     6.9650     9.3080 ca         1 0VI       0.203100
     10 C10         22.0680     6.1380     6.8860 c5         1 0VI      -0.132000
     11 C15         21.7970     6.4640     3.2600 ca         1 0VI       0.484000
     12 C17         19.6270     6.3940     4.0760 ca         1 0VI       0.279300
     13 C19         18.1420     6.4010     3.7740 c3         1 0VI      -0.156400
     14 C20         24.6890     5.8090     7.1990 c3         1 0VI      -0.136400
     15 C24         22.0390     4.7810     0.4510 c3         1 0VI      -0.094900
     16 C25         21.5160     4.4890    -0.9790 c3         1 0VI      -0.149900
     17 C26         21.3800     2.9860    -1.3160 c3         1 0VI       0.293500
     18 C27         24.2310     8.5160     2.6430 c3         1 0VI      -0.094900
     19 C28         23.5490     9.5290     1.6830 c3         1 0VI      -0.149900
     20 C29         23.8510    11.0120     1.9940 c3         1 0VI       0.293500
     21 C37         21.5540    10.3130     5.7380 c3         1 0VI       0.149400
     22 F30         20.9220     2.8230    -2.5770 f          1 0VI      -0.109167
     23 F31         22.5720     2.3550    -1.2220 f          1 0VI      -0.109167
     24 F32         20.5130     2.3750    -0.4770 f          1 0VI      -0.109167
     25 F33         25.1690    11.2790     1.8530 f          1 0VI      -0.109167
     26 F34         23.1720    11.8210     1.1500 f          1 0VI      -0.109167
     27 F35         23.4910    11.3330     3.2560 f          1 0VI      -0.109167
     28 N13         22.2660     6.3800     4.5860 na         1 0VI      -0.183600
     29 N16         20.4640     6.4680     3.0110 nb         1 0VI      -0.275000
     30 N18         19.9840     6.3150     5.3770 nb         1 0VI      -0.173000
     31 N21         22.6620     6.5720     2.1190 nh         1 0VI      -0.297500
     32 O07         22.2120     5.6390     9.6650 os         1 0VI      -0.378100
     33 Br1         21.7230    10.6840    11.2280 br         1 0VI      -0.056100
     34 H11         22.0230     7.7520    11.3440 ha         1 0VI       0.152000
     35 H12         21.6600    10.7000     8.2820 ha         1 0VI       0.152000
     36 H13         21.7930     5.1660     7.3040 hc         1 0VI       0.151700
     37 H92         17.9340     5.9950     2.7770 hc         1 0VI       0.094033
     38 H93         17.5840     5.7960     4.4980 hc         1 0VI       0.094033
     39 H91         17.7450     7.4210     3.8100 hc         1 0VI       0.094033
     40 H02         25.6020     5.7220     6.5990 hc         1 0VI       0.086700
     41 H03         24.8280     6.6320     7.9080 hc         1 0VI       0.086700
     42 H01         24.5700     4.8840     7.7730 hc         1 0VI       0.086700
     43 H21         24.6460     6.3910     2.8690 h1         1 0VI       0.085450
     44 H22         24.5550     6.9330     1.2260 h1         1 0VI       0.085450
     45 H31         22.8200     6.7430     0.0030 h1         1 0VI       0.085450
     46 H32         21.1800     6.7700     0.6000 h1         1 0VI       0.085450
     47 H42         21.3670     4.3200     1.1860 hc         1 0VI       0.075700
     48 H41         23.0230     4.3150     0.5860 hc         1 0VI       0.075700
     49 H51         22.1900     4.9500    -1.7120 hc         1 0VI       0.083700
     50 H52         20.5370     4.9650    -1.1110 hc         1 0VI       0.083700
     51 H74         25.3040     8.7360     2.7010 hc         1 0VI       0.075700
     52 H75         23.8330     8.6450     3.6570 hc         1 0VI       0.075700
     53 H82         22.4620     9.3800     1.7130 hc         1 0VI       0.083700
     54 H81         23.8650     9.3210     0.6530 hc         1 0VI       0.083700
     55 H63         22.4440     4.1170    11.0800 h1         1 0VI       0.058367
     56 H62         23.1810     5.6670    11.5270 h1         1 0VI       0.058367
     57 H61         21.4090     5.4620    11.5970 h1         1 0VI       0.058367
     58 H71         21.4980    10.3190     4.6420 h1         1 0VI       0.058367
     59 H72         20.6040    10.7040     6.1240 h1         1 0VI       0.058367
     60 H73         22.3650    10.9870     6.0410 h1         1 0VI       0.058367
     61 O08         21.7900     8.9760     6.2130 os         1 0VI      -0.378100
     62 C22         24.0680     7.0420     2.2040 c3         1 0VI       0.071100
     63 C23         22.1570     6.2900     0.7520 c3         1 0VI       0.071100
     64 C36         22.3160     5.2050    11.0340 c3         1 0VI       0.149400
@<TRIPOS>BOND
     1     1    10 1   
     2     1    28 1   
     3     1    30 ar  
     4     2     3 2   
     5     2    10 1   
     6     2    14 1   
     7     3    28 1   
     8     4     5 ar  
     9     4     9 ar  
    10     4    34 1   
    11     5     6 ar  
    12     5    33 1   
    13     6     7 ar  
    14     6    35 1   
    15     7     8 ar  
    16     7    61 1   
    17     8     9 ar  
    18     8    10 1   
    19     9    32 1   
    20    10    36 1   
    21    11    28 2   
    22    11    29 ar  
    23    11    31 1   
    24    12    13 1   
    25    12    29 ar  
    26    12    30 ar  
    27    13    37 1   
    28    13    38 1   
    29    13    39 1   
    30    14    40 1   
    31    14    41 1   
    32    14    42 1   
    33    15    16 1   
    34    15    47 1   
    35    15    48 1   
    36    15    63 1   
    37    16    17 1   
    38    16    49 1   
    39    16    50 1   
    40    17    22 1   
    41    17    23 1   
    42    17    24 1   
    43    18    19 1   
    44    18    51 1   
    45    18    52 1   
    46    18    62 1   
    47    19    20 1   
    48    19    53 1   
    49    19    54 1   
    50    20    25 1   
    51    20    26 1   
    52    20    27 1   
    53    21    58 1   
    54    21    59 1   
    55    21    60 1   
    56    21    61 1   
    57    31    62 1   
    58    31    63 1   
    59    32    64 1   
    60    43    62 1   
    61    44    62 1   
    62    45    63 1   
    63    46    63 1   
    64    55    64 1   
    65    56    64 1   
    66    57    64 1   
@<TRIPOS>SUBSTRUCTURE
     1 0VI         1 TEMP              0 ****  ****    0 ROOT
