@<TRIPOS>MOLECULE
0VJ
   36    38     1     0     0
SMALL
bcc


@<TRIPOS>ATOM
      1 C01          4.1910    -2.0370    -1.0730 ca         1 0VJ      -0.106000
      2 C02          4.7470    -0.8530    -1.5380 ca         1 0VJ      -0.122000
      3 C03          4.1520     0.3600    -1.2280 ca         1 0VJ      -0.074000
      4 C04          3.0000     0.3840    -0.4520 ca         1 0VJ      -0.142600
      5 C05          2.4380    -0.8040     0.0170 ca         1 0VJ      -0.120600
      6 C06          3.0390    -2.0150    -0.2980 ca         1 0VJ      -0.086000
      7 C07          2.3630     1.6640    -0.1190 c          1 0VJ       0.553900
      8 C08          1.1280     1.6430     0.7160 cc         1 0VJ       0.057900
      9 C09          0.5780     0.5010     1.1760 cd         1 0VJ      -0.205400
     10 C10          1.2070    -0.7850     0.8580 c          1 0VJ       0.588900
     11 C11         -0.6860     0.4800     1.9880 c3         1 0VJ       0.036100
     12 C12         -1.8850     0.1060     1.1480 ca         1 0VJ      -0.117300
     13 C13         -2.5100    -1.1310     1.2910 ca         1 0VJ      -0.081000
     14 C14         -3.6070    -1.4780     0.5230 ca         1 0VJ      -0.192500
     15 C15         -4.1120    -0.5870    -0.4240 ca         1 0VJ       0.139100
     16 C16         -3.4980     0.6530    -0.5820 ca         1 0VJ      -0.192500
     17 C17         -2.3980     0.9840     0.2010 ca         1 0VJ      -0.081000
     18 O01         -5.1840    -1.0020    -1.1290 os         1 0VJ      -0.319900
     19 O02          0.7390    -1.8270     1.2770 o          1 0VJ      -0.508100
     20 O03          2.7860     2.7410    -0.4880 o          1 0VJ      -0.521100
     21 O            0.6010     2.8320     0.9670 oh         1 0VJ      -0.474100
     22 C           -5.7280    -0.1340    -2.1020 c3         1 0VJ       0.126700
     23 H1           4.6560    -2.9840    -1.3130 ha         1 0VJ       0.141000
     24 H2           5.6440    -0.8750    -2.1420 ha         1 0VJ       0.141000
     25 H3           4.5840     1.2840    -1.5880 ha         1 0VJ       0.155000
     26 H4           2.6120    -2.9410     0.0590 ha         1 0VJ       0.160000
     27 H5          -0.5810    -0.2340     2.8050 hc         1 0VJ       0.064700
     28 H6          -0.8470     1.4560     2.4470 hc         1 0VJ       0.064700
     29 H7          -2.1300    -1.8390     2.0170 ha         1 0VJ       0.136000
     30 H8          -4.0780    -2.4450     0.6510 ha         1 0VJ       0.138000
     31 H9          -3.8610     1.3760    -1.3000 ha         1 0VJ       0.138000
     32 H10         -1.9420     1.9580     0.0620 ha         1 0VJ       0.136000
     33 H11          1.1530     3.5190     0.5580 ho         1 0VJ       0.453000
     34 H12         -6.0760     0.8060    -1.6640 h1         1 0VJ       0.039367
     35 H13         -5.0100     0.0930    -2.8950 h1         1 0VJ       0.039367
     36 H14         -6.5780    -0.6510    -2.5380 h1         1 0VJ       0.039367
@<TRIPOS>BOND
     1     1     2 ar  
     2     1     6 ar  
     3     1    23 1   
     4     2     3 ar  
     5     2    24 1   
     6     3     4 ar  
     7     3    25 1   
     8     4     5 ar  
     9     4     7 1   
    10     5     6 ar  
    11     5    10 1   
    12     6    26 1   
    13     7     8 1   
    14     7    20 2   
    15     8     9 2   
    16     8    21 1   
    17     9    10 1   
    18     9    11 1   
    19    10    19 2   
    20    11    12 1   
    21    11    27 1   
    22    11    28 1   
    23    12    13 ar  
    24    12    17 ar  
    25    13    14 ar  
    26    13    29 1   
    27    14    15 ar  
    28    14    30 1   
    29    15    16 ar  
    30    15    18 1   
    31    16    17 ar  
    32    16    31 1   
    33    17    32 1   
    34    18    22 1   
    35    21    33 1   
    36    22    34 1   
    37    22    35 1   
    38    22    36 1   
@<TRIPOS>SUBSTRUCTURE
     1 0VJ         1 TEMP              0 ****  ****    0 ROOT
