@<TRIPOS>MOLECULE
0VJ
   36    38     1     0     0
SMALL
No Charge or Current Charge


@<TRIPOS>ATOM
      1 C01          4.3680    -2.0780    -0.9540 ca         1 0VJ      -0.088000
      2 C02          4.9020    -0.8860    -1.4650 ca         1 0VJ      -0.104000
      3 C03          4.2560     0.3340    -1.2150 ca         1 0VJ      -0.056000
      4 C04          3.0670     0.3770    -0.4500 ca         1 0VJ      -0.142600
      5 C05          2.5260    -0.8260     0.0670 ca         1 0VJ      -0.120600
      6 C06          3.1890    -2.0490    -0.1930 ca         1 0VJ      -0.068000
      7 C07          2.3890     1.6990    -0.1950 c          1 0VJ       0.553900
      8 C08          1.1330     1.6590     0.6200 cc         1 0VJ       0.057900
      9 C09          0.5910     0.4920     1.1340 cd         1 0VJ      -0.205400
     10 C10          1.2560    -0.8220     0.8900 c          1 0VJ       0.588900
     11 C11         -0.6910     0.4480     1.9500 c3         1 0VJ       0.036100
     12 C12         -1.9160     0.0850     1.1170 ca         1 0VJ      -0.117300
     13 C13         -2.4650    -1.2100     1.1780 ca         1 0VJ      -0.063000
     14 C14         -3.5910    -1.5380     0.4030 ca         1 0VJ      -0.174500
     15 C15         -4.1790    -0.5810    -0.4380 ca         1 0VJ       0.139100
     16 C16         -3.6310     0.7180    -0.5020 ca         1 0VJ      -0.174500
     17 C17         -2.5050     1.0460     0.2730 ca         1 0VJ      -0.063000
     18 O01         -5.2820    -0.9620    -1.1750 os         1 0VJ      -0.343100
     19 O02          0.8050    -1.8710     1.3370 o          1 0VJ      -0.508100
     20 O03          2.8430     2.7530    -0.6320 o          1 0VJ      -0.521100
     21 O            0.5620     2.8790     0.8170 oh         1 0VJ      -0.513100
     22 C           -5.9580    -0.0570    -2.0670 c3         1 0VJ       0.149900
     23 H1           4.8680    -3.0250    -1.1470 ha         1 0VJ       0.123000
     24 H2           5.8160    -0.9070    -2.0540 ha         1 0VJ       0.123000
     25 H3           4.6840     1.2500    -1.6190 ha         1 0VJ       0.137000
     26 H4           2.7920    -2.9860     0.1940 ha         1 0VJ       0.142000
     27 H5          -0.5850    -0.2510     2.7900 hc         1 0VJ       0.064700
     28 H6          -0.8650     1.4170     2.4360 hc         1 0VJ       0.064700
     29 H7          -2.0190    -1.9650     1.8240 ha         1 0VJ       0.118000
     30 H8          -4.0090    -2.5400     0.4550 ha         1 0VJ       0.120000
     31 H9          -4.0620     1.4820    -1.1430 ha         1 0VJ       0.120000
     32 H10         -2.0890     2.0490     0.2170 ha         1 0VJ       0.118000
     33 H11          1.1350     3.5380     0.3590 ho         1 0VJ       0.492000
     34 H12         -6.3470     0.8110    -1.5210 h1         1 0VJ       0.039367
     35 H13         -5.2780     0.2950    -2.8540 h1         1 0VJ       0.039367
     36 H14         -6.8040    -0.5610    -2.5500 h1         1 0VJ       0.039367
@<TRIPOS>BOND
     1     1     2 ar  
     2     1     6 ar  
     3     1    23 1   
     4     2     3 ar  
     5     2    24 1   
     6     3     4 ar  
     7     3    25 1   
     8     4     5 ar  
     9     4     7 1   
    10     5     6 ar  
    11     5    10 1   
    12     6    26 1   
    13     7     8 1   
    14     7    20 2   
    15     8     9 2   
    16     8    21 1   
    17     9    10 1   
    18     9    11 1   
    19    10    19 2   
    20    11    12 1   
    21    11    27 1   
    22    11    28 1   
    23    12    13 ar  
    24    12    17 ar  
    25    13    14 ar  
    26    13    29 1   
    27    14    15 ar  
    28    14    30 1   
    29    15    16 ar  
    30    15    18 1   
    31    16    17 ar  
    32    16    31 1   
    33    17    32 1   
    34    18    22 1   
    35    21    33 1   
    36    22    34 1   
    37    22    35 1   
    38    22    36 1   
@<TRIPOS>SUBSTRUCTURE
     1 0VJ         1 TEMP              0 ****  ****    0 ROOT
