@<TRIPOS>MOLECULE
0VK
   72    74     1     0     0
SMALL
No Charge or Current Charge


@<TRIPOS>ATOM
      1 C1           6.3100     1.4880    -1.2310 ca         1 0VK      -0.089000
      2 C2           6.7480     1.4140     0.1080 ca         1 0VK      -0.075300
      3 C3           6.1710     0.4480     0.9770 ca         1 0VK      -0.092300
      4 C4           5.1550    -0.4000     0.4830 ca         1 0VK      -0.059000
      5 C5           4.7230    -0.3180    -0.8540 ca         1 0VK      -0.099300
      6 C6           5.3080     0.6290    -1.7100 ca         1 0VK      -0.086000
      7 C48          6.5950     0.3120     2.4460 c3         1 0VK       0.209900
      8 O49          6.7720    -1.0640     2.8080 oh         1 0VK      -0.656000
      9 C52          7.8230     2.3990     0.5710 c3         1 0VK       0.206900
     10 O53          9.1150     1.7820     0.5530 oh         1 0VK      -0.656000
     11 C10          3.6300    -1.2470    -1.3640 c3         1 0VK       0.212900
     12 O1           2.3550    -0.6840    -1.0140 os         1 0VK      -0.342100
     13 C14          1.1650    -1.3040    -1.3320 ca         1 0VK       0.138100
     14 C17         -0.0270    -0.6820    -0.9350 ca         1 0VK      -0.131000
     15 C18         -1.2860    -1.2580    -1.2150 cp         1 0VK      -0.003000
     16 C19         -1.3350    -2.4860    -1.9260 ca         1 0VK      -0.100300
     17 C20         -0.1370    -3.1100    -2.3270 ca         1 0VK      -0.076000
     18 C21          1.1070    -2.5270    -2.0330 ca         1 0VK      -0.196000
     19 C8          -2.6680    -3.1470    -2.2630 c3         1 0VK      -0.040800
     20 C7          -2.5300    -0.5720    -0.7640 cp         1 0VK      -0.036000
     21 C9          -3.1290     0.3950    -1.5960 ca         1 0VK      -0.098000
     22 C11         -3.1390    -0.8660     0.4850 ca         1 0VK      -0.059300
     23 C12         -4.3150    -0.1890     0.8680 ca         1 0VK      -0.103000
     24 C13         -4.3010     1.0610    -1.2090 ca         1 0VK      -0.110000
     25 C16         -4.9130     0.7870     0.0340 ca         1 0VK      -0.105300
     26 C15         -2.5510    -1.9010     1.4430 c3         1 0VK      -0.036100
     27 C22         -1.5520    -1.2730     2.4390 c3         1 0VK      -0.073400
     28 C24         -6.2140     1.5320     0.4270 c3         1 0VK       0.233300
     29 C25         -5.9490     3.0720     0.4510 c3         1 0VK      -0.079900
     30 C26         -7.3680     1.1610    -0.5550 c3         1 0VK      -0.079900
     31 O2          -6.6320     1.1570     1.7450 oh         1 0VK      -0.655000
     32 C28         -7.6310    -0.3560    -0.7160 c3         1 0VK      -0.085600
     33 C29         -7.1210     3.9690     0.9250 c3         1 0VK      -0.085600
     34 C23         -0.9270    -2.3020     3.4000 c3         1 0VK      -0.089100
     35 H1           6.7470     2.2200    -1.9060 ha         1 0VK       0.133000
     36 H2           4.6950    -1.1310     1.1440 ha         1 0VK       0.134000
     37 H3           4.9830     0.7070    -2.7450 ha         1 0VK       0.116000
     38 H4           7.5290     0.8550     2.6340 h1         1 0VK       0.022700
     39 H5           5.8210     0.7700     3.0760 h1         1 0VK       0.022700
     40 H6           7.0560    -1.0730     3.7490 ho         1 0VK       0.447000
     41 H7           7.8190     3.2750    -0.0910 h1         1 0VK       0.024200
     42 H8           7.5830     2.7660     1.5780 h1         1 0VK       0.024200
     43 H9           9.7600     2.4690     0.8310 ho         1 0VK       0.447000
     44 H10          3.7190    -1.3580    -2.4520 h1         1 0VK       0.040700
     45 H11          3.7530    -2.2380    -0.9070 h1         1 0VK       0.040700
     46 H12          0.0210     0.2590    -0.3950 ha         1 0VK       0.131000
     47 H13         -0.1670    -4.0530    -2.8700 ha         1 0VK       0.109000
     48 H14          2.0100    -3.0370    -2.3570 ha         1 0VK       0.116000
     49 H15         -3.3010    -2.4730    -2.8520 hc         1 0VK       0.041700
     50 H16         -2.5350    -4.0660    -2.8440 hc         1 0VK       0.041700
     51 H17         -3.2180    -3.4100    -1.3510 hc         1 0VK       0.041700
     52 H18         -2.6770     0.6250    -2.5580 ha         1 0VK       0.117000
     53 H19         -4.7600    -0.4440     1.8260 ha         1 0VK       0.119000
     54 H20         -4.7350     1.7900    -1.8890 ha         1 0VK       0.111000
     55 H21         -3.3550    -2.3900     2.0070 hc         1 0VK       0.049700
     56 H22         -2.0500    -2.7040     0.8900 hc         1 0VK       0.049700
     57 H23         -0.7500    -0.7730     1.8840 hc         1 0VK       0.041700
     58 H24         -2.0640    -0.4990     3.0250 hc         1 0VK       0.041700
     59 H25         -5.0840     3.2700     1.0960 hc         1 0VK       0.044450
     60 H26         -5.6600     3.4090    -0.5510 hc         1 0VK       0.044450
     61 H27         -8.3000     1.6290    -0.2170 hc         1 0VK       0.044450
     62 H28         -7.1540     1.5830    -1.5440 hc         1 0VK       0.044450
     63 H29         -5.9320     1.4710     2.3540 ho         1 0VK       0.442000
     64 H30         -6.7580    -0.8660    -1.1390 hc         1 0VK       0.035867
     65 H31         -7.8690    -0.8180     0.2490 hc         1 0VK       0.035867
     66 H32         -8.4780    -0.5230    -1.3910 hc         1 0VK       0.035867
     67 H33         -7.9800     3.8900     0.2500 hc         1 0VK       0.035867
     68 H34         -7.4460     3.7020     1.9370 hc         1 0VK       0.035867
     69 H35         -6.8060     5.0190     0.9410 hc         1 0VK       0.035867
     70 H36         -0.2290    -1.8090     4.0870 hc         1 0VK       0.031700
     71 H37         -1.7030    -2.7980     3.9960 hc         1 0VK       0.031700
     72 H38         -0.3750    -3.0680     2.8410 hc         1 0VK       0.031700
@<TRIPOS>BOND
     1     1     2 ar  
     2     1     6 ar  
     3     1    35 1   
     4     2     3 ar  
     5     2     9 1   
     6     3     4 ar  
     7     3     7 1   
     8     4     5 ar  
     9     4    36 1   
    10     5     6 ar  
    11     5    11 1   
    12     6    37 1   
    13     7     8 1   
    14     7    38 1   
    15     7    39 1   
    16     8    40 1   
    17     9    10 1   
    18     9    41 1   
    19     9    42 1   
    20    10    43 1   
    21    11    12 1   
    22    11    44 1   
    23    11    45 1   
    24    12    13 1   
    25    13    14 ar  
    26    13    18 ar  
    27    14    15 ar  
    28    14    46 1   
    29    15    16 ar  
    30    15    20 1   
    31    16    17 ar  
    32    16    19 1   
    33    17    18 ar  
    34    17    47 1   
    35    18    48 1   
    36    19    49 1   
    37    19    50 1   
    38    19    51 1   
    39    20    21 ar  
    40    20    22 ar  
    41    21    24 ar  
    42    21    52 1   
    43    22    23 ar  
    44    22    26 1   
    45    23    25 ar  
    46    23    53 1   
    47    24    25 ar  
    48    24    54 1   
    49    25    28 1   
    50    26    27 1   
    51    26    55 1   
    52    26    56 1   
    53    27    34 1   
    54    27    57 1   
    55    27    58 1   
    56    28    29 1   
    57    28    30 1   
    58    28    31 1   
    59    29    33 1   
    60    29    59 1   
    61    29    60 1   
    62    30    32 1   
    63    30    61 1   
    64    30    62 1   
    65    31    63 1   
    66    32    64 1   
    67    32    65 1   
    68    32    66 1   
    69    33    67 1   
    70    33    68 1   
    71    33    69 1   
    72    34    70 1   
    73    34    71 1   
    74    34    72 1   
@<TRIPOS>SUBSTRUCTURE
     1 0VK         1 TEMP              0 ****  ****    0 ROOT
