@<TRIPOS>MOLECULE
0VK
   72    74     1     0     0
SMALL
abcg2


@<TRIPOS>ATOM
      1 C1           6.1410     1.4740    -1.1590 ca         1 0VK      -0.089000
      2 C2           6.6590     1.3290     0.1220 ca         1 0VK      -0.075300
      3 C3           6.1750     0.2990     0.9430 ca         1 0VK      -0.092300
      4 C4           5.1830    -0.5450     0.4630 ca         1 0VK      -0.059000
      5 C5           4.6650    -0.3970    -0.8200 ca         1 0VK      -0.099300
      6 C6           5.1520     0.6190    -1.6270 ca         1 0VK      -0.086000
      7 C48          6.7470     0.1230     2.3240 c3         1 0VK       0.209900
      8 O49          6.1050    -0.9300     2.9910 oh         1 0VK      -0.656000
      9 C52          7.7250     2.2520     0.6450 c3         1 0VK       0.206900
     10 O53          8.0820     3.1960    -0.3290 oh         1 0VK      -0.656000
     11 C10          3.5680    -1.2970    -1.3000 c3         1 0VK       0.212900
     12 O1           2.3340    -0.6970    -0.9270 os         1 0VK      -0.342100
     13 C14          1.1870    -1.3340    -1.2480 ca         1 0VK       0.138100
     14 C17          0.0050    -0.7060    -0.8540 ca         1 0VK      -0.131000
     15 C18         -1.2310    -1.2700    -1.1280 cp         1 0VK      -0.003000
     16 C19         -1.3160    -2.4870    -1.8210 ca         1 0VK      -0.100300
     17 C20         -0.1300    -3.0960    -2.2070 ca         1 0VK      -0.076000
     18 C21          1.1160    -2.5420    -1.9300 ca         1 0VK      -0.196000
     19 C8          -2.6450    -3.1150    -2.1310 c3         1 0VK      -0.040800
     20 C7          -2.4650    -0.5580    -0.7040 cp         1 0VK      -0.036000
     21 C9          -3.0040     0.4240    -1.5320 ca         1 0VK      -0.098000
     22 C11         -3.1100    -0.8590     0.4970 ca         1 0VK      -0.059300
     23 C12         -4.2720    -0.1630     0.8330 ca         1 0VK      -0.103000
     24 C13         -4.1570     1.1030    -1.1810 ca         1 0VK      -0.110000
     25 C16         -4.8130     0.8210     0.0170 ca         1 0VK      -0.105300
     26 C15         -2.5590    -1.8810     1.4520 c3         1 0VK      -0.036100
     27 C22         -1.5870    -1.2680     2.4630 c3         1 0VK      -0.073400
     28 C24         -6.0990     1.5540     0.3850 c3         1 0VK       0.233300
     29 C25         -5.8330     3.0730     0.3850 c3         1 0VK      -0.079900
     30 C26         -7.2020     1.1810    -0.6160 c3         1 0VK      -0.079900
     31 O2          -6.5710     1.1520     1.6550 oh         1 0VK      -0.655000
     32 C28         -7.4730    -0.3130    -0.7300 c3         1 0VK      -0.085600
     33 C29         -7.0350     3.9400     0.7340 c3         1 0VK      -0.085600
     34 C23         -1.0090    -2.3050     3.4140 c3         1 0VK      -0.089100
     35 H1           6.5090     2.2560    -1.8070 ha         1 0VK       0.133000
     36 H2           4.8030    -1.3400     1.0920 ha         1 0VK       0.134000
     37 H3           4.7650     0.7480    -2.6310 ha         1 0VK       0.116000
     38 H4           7.8280    -0.0610     2.2360 h1         1 0VK       0.022700
     39 H5           6.6460     1.0670     2.8790 h1         1 0VK       0.022700
     40 H6           6.4850    -1.0000     3.8710 ho         1 0VK       0.447000
     41 H7           7.3520     2.7400     1.5570 h1         1 0VK       0.024200
     42 H8           8.5950     1.6550     0.9580 h1         1 0VK       0.024200
     43 H9           8.7180     3.8000     0.0630 ho         1 0VK       0.447000
     44 H10          3.6190    -1.4190    -2.3870 h1         1 0VK       0.040700
     45 H11          3.6600    -2.2910    -0.8480 h1         1 0VK       0.040700
     46 H12          0.0590     0.2360    -0.3220 ha         1 0VK       0.131000
     47 H13         -0.1670    -4.0340    -2.7470 ha         1 0VK       0.109000
     48 H14          2.0040    -3.0640    -2.2590 ha         1 0VK       0.116000
     49 H15         -3.3140    -2.4190    -2.6370 hc         1 0VK       0.041700
     50 H16         -2.5240    -3.9890    -2.7700 hc         1 0VK       0.041700
     51 H17         -3.1590    -3.4410    -1.2240 hc         1 0VK       0.041700
     52 H18         -2.5150     0.6550    -2.4710 ha         1 0VK       0.117000
     53 H19         -4.7640    -0.4240     1.7620 ha         1 0VK       0.119000
     54 H20         -4.5470     1.8530    -1.8590 ha         1 0VK       0.111000
     55 H21         -3.3820    -2.3570     1.9930 hc         1 0VK       0.049700
     56 H22         -2.0470    -2.6770     0.9030 hc         1 0VK       0.049700
     57 H23         -0.7760    -0.7700     1.9250 hc         1 0VK       0.041700
     58 H24         -2.1040    -0.4890     3.0310 hc         1 0VK       0.041700
     59 H25         -5.0240     3.2730     1.0960 hc         1 0VK       0.044450
     60 H26         -5.4470     3.3710    -0.5910 hc         1 0VK       0.044450
     61 H27         -8.1230     1.6940    -0.3270 hc         1 0VK       0.044450
     62 H28         -6.9260     1.5770    -1.5970 hc         1 0VK       0.044450
     63 H29         -5.9550     1.4650     2.3270 ho         1 0VK       0.442000
     64 H30         -6.5990    -0.8540    -1.0930 hc         1 0VK       0.035867
     65 H31         -7.7590    -0.7470     0.2280 hc         1 0VK       0.035867
     66 H32         -8.2880    -0.4960    -1.4310 hc         1 0VK       0.035867
     67 H33         -7.8130     3.8920    -0.0280 hc         1 0VK       0.035867
     68 H34         -7.4800     3.6540     1.6870 hc         1 0VK       0.035867
     69 H35         -6.7290     4.9840     0.8160 hc         1 0VK       0.035867
     70 H36         -0.3400    -1.8460     4.1430 hc         1 0VK       0.031700
     71 H37         -1.7970    -2.8200     3.9660 hc         1 0VK       0.031700
     72 H38         -0.4380    -3.0610     2.8720 hc         1 0VK       0.031700
@<TRIPOS>BOND
     1     1     2 ar  
     2     1     6 ar  
     3     1    35 1   
     4     2     3 ar  
     5     2     9 1   
     6     3     4 ar  
     7     3     7 1   
     8     4     5 ar  
     9     4    36 1   
    10     5     6 ar  
    11     5    11 1   
    12     6    37 1   
    13     7     8 1   
    14     7    38 1   
    15     7    39 1   
    16     8    40 1   
    17     9    10 1   
    18     9    41 1   
    19     9    42 1   
    20    10    43 1   
    21    11    12 1   
    22    11    44 1   
    23    11    45 1   
    24    12    13 1   
    25    13    14 ar  
    26    13    18 ar  
    27    14    15 ar  
    28    14    46 1   
    29    15    16 ar  
    30    15    20 1   
    31    16    17 ar  
    32    16    19 1   
    33    17    18 ar  
    34    17    47 1   
    35    18    48 1   
    36    19    49 1   
    37    19    50 1   
    38    19    51 1   
    39    20    21 ar  
    40    20    22 ar  
    41    21    24 ar  
    42    21    52 1   
    43    22    23 ar  
    44    22    26 1   
    45    23    25 ar  
    46    23    53 1   
    47    24    25 ar  
    48    24    54 1   
    49    25    28 1   
    50    26    27 1   
    51    26    55 1   
    52    26    56 1   
    53    27    34 1   
    54    27    57 1   
    55    27    58 1   
    56    28    29 1   
    57    28    30 1   
    58    28    31 1   
    59    29    33 1   
    60    29    59 1   
    61    29    60 1   
    62    30    32 1   
    63    30    61 1   
    64    30    62 1   
    65    31    63 1   
    66    32    64 1   
    67    32    65 1   
    68    32    66 1   
    69    33    67 1   
    70    33    68 1   
    71    33    69 1   
    72    34    70 1   
    73    34    71 1   
    74    34    72 1   
@<TRIPOS>SUBSTRUCTURE
     1 0VK         1 TEMP              0 ****  ****    0 ROOT
