@<TRIPOS>MOLECULE
0VL
   58    60     1     0     0
SMALL
abcg2


@<TRIPOS>ATOM
      1 C1           8.1740    28.6680    14.6700 c3         1 0VL      -0.102100
      2 C2           7.1910    29.8430    14.7970 c3         1 0VL       0.117100
      3 C3           6.4530    30.0410    13.4740 c3         1 0VL      -0.102100
      4 N5           3.4720    33.0350    10.4610 nb         1 0VL      -0.661000
      5 C6           4.1310    33.1770    16.3400 ca         1 0VL      -0.102300
      6 C7           3.0650    33.6750    15.5960 ca         1 0VL      -0.086500
      7 C8           1.7540    33.3610    15.9440 ca         1 0VL      -0.119500
      8 C9           1.5030    32.5270    17.0280 ca         1 0VL      -0.103000
      9 C10          2.5660    32.0160    17.7700 ca         1 0VL      -0.119500
     10 C15          2.4660    30.1480    14.5440 c3         1 0VL       0.114000
     11 C18          2.1410    32.0510    12.2020 ca         1 0VL      -0.164500
     12 C19          2.4700    33.0910    11.3460 ca         1 0VL       0.333900
     13 C20          4.1760    31.8990    10.4190 ca         1 0VL       0.333900
     14 C21          3.9230    30.8090    11.2410 ca         1 0VL      -0.164500
     15 C22          4.6450    28.8330    18.0520 cc         1 0VL       0.071900
     16 C23          6.0140    29.2480    18.3360 c          1 0VL       0.546200
     17 C11          3.8700    32.3490    17.4330 ca         1 0VL      -0.086500
     18 C12          6.2170    29.5360    15.9320 cc         1 0VL       0.469900
     19 C13          4.1830    28.8900    16.7580 cd         1 0VL      -0.046600
     20 C16          2.5870    29.7120    13.0840 c3         1 0VL      -0.050100
     21 C17          2.8840    30.8690    12.1670 ca         1 0VL      -0.034300
     22 C5           5.5460    33.5060    15.9720 c3         1 0VL       0.229900
     23 N1           7.9890    31.0280    15.1530 ns         1 0VL      -0.520900
     24 N2           6.7170    29.5870    17.1990 ns         1 0VL      -0.402400
     25 N3           4.9950    29.2020    15.6970 nd         1 0VL      -0.595300
     26 N4           2.1170    29.0370    15.4240 ns         1 0VL      -0.459900
     27 O1           6.1760    32.2700    15.5500 os         1 0VL      -0.462100
     28 O2           8.2130    33.2620    15.5460 o          1 0VL      -0.527000
     29 O3           2.1340    27.8810    17.3520 o          1 0VL      -0.663100
     30 O5           6.5140    29.3120    19.4560 o          1 0VL      -0.509000
     31 H1           8.7310    28.5130    15.5940 hc         1 0VL       0.056033
     32 H2           7.6260    27.7570    14.4330 hc         1 0VL       0.056033
     33 H3           8.8790    28.8720    13.8630 hc         1 0VL       0.056033
     34 H4           5.7240    30.8440    13.5440 hc         1 0VL       0.056033
     35 H5           7.1830    30.2850    12.7020 hc         1 0VL       0.056033
     36 H6           5.9320    29.1290    13.1890 hc         1 0VL       0.056033
     37 H7           3.2600    34.3080    14.7380 ha         1 0VL       0.118500
     38 H8           0.9330    33.7530    15.3580 ha         1 0VL       0.119000
     39 H9           0.4850    32.2690    17.2900 ha         1 0VL       0.117000
     40 H10          2.3760    31.3580    18.6090 ha         1 0VL       0.119000
     41 H11          3.3910    30.5970    14.8830 h1         1 0VL       0.065700
     42 H12          1.6790    30.8930    14.6490 h1         1 0VL       0.065700
     43 H13          1.3140    32.1730    12.8880 ha         1 0VL       0.120500
     44 H14          1.9020    34.0150    11.3730 h4         1 0VL       0.019600
     45 H15          4.9860    31.8590     9.6980 h4         1 0VL       0.019600
     46 H16          4.5380    29.9230    11.1620 ha         1 0VL       0.120500
     47 H18          4.6960    31.9620    18.0170 ha         1 0VL       0.118500
     48 H19          1.6490    29.2390    12.7770 hc         1 0VL       0.062700
     49 H20          3.3730    28.9620    12.9940 hc         1 0VL       0.062700
     50 H21          6.1030    33.9010    16.8220 h1         1 0VL       0.063200
     51 H22          5.5910    34.2240    15.1540 h1         1 0VL       0.063200
     52 H23          8.9750    30.9950    14.9440 hn         1 0VL       0.335500
     53 H24          1.1520    28.7340    15.3760 hn         1 0VL       0.312500
     54 H25          3.0660    28.1110    18.7240 ho         1 0VL       0.523000
     55 H17          7.6690    29.9090    17.3400 hn         1 0VL       0.342500
     56 O4           3.9190    28.4530    19.1070 oh         1 0VL      -0.509100
     57 C4           7.5120    32.2730    15.4160 c          1 0VL       0.635100
     58 C14          2.7470    28.5790    16.5120 c          1 0VL       0.636300
@<TRIPOS>BOND
     1     1     2 1   
     2     1    31 1   
     3     1    32 1   
     4     1    33 1   
     5     2     3 1   
     6     2    18 1   
     7     2    23 1   
     8     3    34 1   
     9     3    35 1   
    10     3    36 1   
    11     4    12 ar  
    12     4    13 ar  
    13     5     6 ar  
    14     5    17 ar  
    15     5    22 1   
    16     6     7 ar  
    17     6    37 1   
    18     7     8 ar  
    19     7    38 1   
    20     8     9 ar  
    21     8    39 1   
    22     9    17 ar  
    23     9    40 1   
    24    10    20 1   
    25    10    26 1   
    26    10    41 1   
    27    10    42 1   
    28    11    12 ar  
    29    11    21 ar  
    30    11    43 1   
    31    12    44 1   
    32    13    14 ar  
    33    13    45 1   
    34    14    21 ar  
    35    14    46 1   
    36    15    16 1   
    37    15    19 2   
    38    15    56 1   
    39    16    24 1   
    40    16    30 2   
    41    17    47 1   
    42    18    24 1   
    43    18    25 2   
    44    19    25 1   
    45    19    58 1   
    46    20    21 1   
    47    20    48 1   
    48    20    49 1   
    49    22    27 1   
    50    22    50 1   
    51    22    51 1   
    52    23    52 1   
    53    23    57 1   
    54    24    55 1   
    55    26    53 1   
    56    26    58 1   
    57    27    57 1   
    58    28    57 2   
    59    29    58 2   
    60    54    56 1   
@<TRIPOS>SUBSTRUCTURE
     1 0VL         1 TEMP              0 ****  ****    0 ROOT
