@<TRIPOS>MOLECULE
0VL
   58    60     1     0     0
SMALL
No Charge or Current Charge


@<TRIPOS>ATOM
      1 C1           8.1040    29.0970    14.2150 c3         1 0VL      -0.102100
      2 C2           7.1200    30.2060    14.6710 c3         1 0VL       0.117100
      3 C3           6.3220    30.6700    13.4190 c3         1 0VL      -0.102100
      4 N5           3.9960    32.1770    10.0890 nb         1 0VL      -0.661000
      5 C6           4.0370    33.2680    16.7120 ca         1 0VL      -0.102300
      6 C7           3.1100    33.8390    15.8170 ca         1 0VL      -0.086500
      7 C8           1.7420    33.5300    15.9220 ca         1 0VL      -0.119500
      8 C9           1.2930    32.6470    16.9190 ca         1 0VL      -0.103000
      9 C10          2.2140    32.0710    17.8100 ca         1 0VL      -0.119500
     10 C15          2.1820    30.2020    14.5980 c3         1 0VL       0.114000
     11 C18          2.9730    31.8920    12.2690 ca         1 0VL      -0.164500
     12 C19          3.4540    32.6900    11.2170 ca         1 0VL       0.333900
     13 C20          4.0710    30.8310     9.9870 ca         1 0VL       0.333900
     14 C21          3.6150    29.9610    10.9920 ca         1 0VL      -0.164500
     15 C22          4.7980    28.6510    17.8740 cc         1 0VL       0.071900
     16 C23          6.2610    28.8570    18.0470 c          1 0VL       0.546200
     17 C11          3.5810    32.3780    17.7050 ca         1 0VL      -0.086500
     18 C12          6.1980    29.6440    15.7810 cc         1 0VL       0.469900
     19 C13          4.1100    28.9740    16.6950 cd         1 0VL      -0.046600
     20 C16          2.5750    29.5310    13.2640 c3         1 0VL      -0.050100
     21 C17          3.0540    30.4870    12.1690 ca         1 0VL      -0.034300
     22 C5           5.5220    33.5860    16.5940 c3         1 0VL       0.229900
     23 N1           7.9420    31.3480    15.1430 ns         1 0VL      -0.520900
     24 N2           6.8480    29.3670    16.9490 ns         1 0VL      -0.402400
     25 N3           4.8860    29.4550    15.6080 nd         1 0VL      -0.595300
     26 N4           1.8250    29.2320    15.6400 ns         1 0VL      -0.459900
     27 O1           6.1480    32.4680    15.9540 os         1 0VL      -0.462100
     28 O2           8.2320    33.4110    16.0690 o          1 0VL      -0.527000
     29 O3           2.0170    28.1750    17.5930 o          1 0VL      -0.663100
     30 O5           6.9120    28.6120    19.0560 o          1 0VL      -0.509000
     31 H1           8.7580    28.7780    15.0340 hc         1 0VL       0.056033
     32 H2           7.5560    28.2160    13.8580 hc         1 0VL       0.056033
     33 H3           8.7430    29.4500    13.3960 hc         1 0VL       0.056033
     34 H4           5.5710    31.4250    13.6750 hc         1 0VL       0.056033
     35 H5           6.9900    31.1050    12.6660 hc         1 0VL       0.056033
     36 H6           5.8020    29.8240    12.9550 hc         1 0VL       0.056033
     37 H7           3.4480    34.5200    15.0390 ha         1 0VL       0.118500
     38 H8           1.0300    33.9750    15.2290 ha         1 0VL       0.119000
     39 H9           0.2350    32.4080    16.9990 ha         1 0VL       0.117000
     40 H10          1.8690    31.3830    18.5790 ha         1 0VL       0.119000
     41 H11          2.9780    30.8660    14.9560 h1         1 0VL       0.065700
     42 H12          1.3030    30.8360    14.4230 h1         1 0VL       0.065700
     43 H13          2.5520    32.3830    13.1410 ha         1 0VL       0.120500
     44 H14          3.4020    33.7760    11.2780 h4         1 0VL       0.019600
     45 H15          4.5100    30.4380     9.0710 h4         1 0VL       0.019600
     46 H16          3.7060    28.8880    10.8520 ha         1 0VL       0.120500
     47 H18          4.2900    31.9230    18.3940 ha         1 0VL       0.118500
     48 H19          1.7110    28.9650    12.8960 hc         1 0VL       0.062700
     49 H20          3.3570    28.7890    13.4590 hc         1 0VL       0.062700
     50 H21          5.9420    33.7500    17.5960 h1         1 0VL       0.063200
     51 H22          5.6660    34.5040    16.0090 h1         1 0VL       0.063200
     52 H23          8.9370    31.3280    14.9570 hn         1 0VL       0.335500
     53 H24          0.8460    28.9890    15.7190 hn         1 0VL       0.312500
     54 H25          3.2270    28.0270    18.7140 ho         1 0VL       0.523000
     55 H17          7.8370    29.5550    17.0150 hn         1 0VL       0.342500
     56 O4           4.1820    28.1420    18.9780 oh         1 0VL      -0.509100
     57 C4           7.4920    32.4980    15.7510 c          1 0VL       0.635100
     58 C14          2.6000    28.7570    16.6840 c          1 0VL       0.636300
@<TRIPOS>BOND
     1     1     2 1   
     2     1    31 1   
     3     1    32 1   
     4     1    33 1   
     5     2     3 1   
     6     2    18 1   
     7     2    23 1   
     8     3    34 1   
     9     3    35 1   
    10     3    36 1   
    11     4    12 ar  
    12     4    13 ar  
    13     5     6 ar  
    14     5    17 ar  
    15     5    22 1   
    16     6     7 ar  
    17     6    37 1   
    18     7     8 ar  
    19     7    38 1   
    20     8     9 ar  
    21     8    39 1   
    22     9    17 ar  
    23     9    40 1   
    24    10    20 1   
    25    10    26 1   
    26    10    41 1   
    27    10    42 1   
    28    11    12 ar  
    29    11    21 ar  
    30    11    43 1   
    31    12    44 1   
    32    13    14 ar  
    33    13    45 1   
    34    14    21 ar  
    35    14    46 1   
    36    15    16 1   
    37    15    19 2   
    38    15    56 1   
    39    16    24 1   
    40    16    30 2   
    41    17    47 1   
    42    18    24 1   
    43    18    25 2   
    44    19    25 1   
    45    19    58 1   
    46    20    21 1   
    47    20    48 1   
    48    20    49 1   
    49    22    27 1   
    50    22    50 1   
    51    22    51 1   
    52    23    52 1   
    53    23    57 1   
    54    24    55 1   
    55    26    53 1   
    56    26    58 1   
    57    27    57 1   
    58    28    57 2   
    59    29    58 2   
    60    54    56 1   
@<TRIPOS>SUBSTRUCTURE
     1 0VL         1 TEMP              0 ****  ****    0 ROOT
