@<TRIPOS>MOLECULE
0VM
   41    44     1     0     0
SMALL
No Charge or Current Charge


@<TRIPOS>ATOM
      1 C8          -7.3030    -0.4160     0.8370 ca         1 0VM      -0.021000
      2 C9          -6.7190     0.4880    -0.0790 ca         1 0VM      -0.065000
      3 C10         -5.3210     0.5360    -0.1380 ca         1 0VM      -0.093200
      4 C11         -4.5140    -0.2450     0.6410 ca         1 0VM       0.124400
      5 C13         -5.0670    -1.1480     1.5580 ca         1 0VM      -0.072000
      6 C14         -6.4750    -1.2310     1.6530 ca         1 0VM      -0.086000
      7 N3          -4.4950     1.2960    -0.9100 na         1 0VM      -0.349600
      8 C12         -3.2080     0.9380    -0.5700 cc         1 0VM       0.673700
      9 N4          -3.1680     0.0020     0.3830 nd         1 0VM      -0.633100
     10 C15          2.0400     0.9920    -0.6030 ca         1 0VM       0.080100
     11 C16          1.5030     2.2690    -0.8370 ca         1 0VM      -0.070000
     12 C17          0.1160     2.4310    -1.0100 ca         1 0VM      -0.146500
     13 C18         -0.7460     1.3250    -0.9350 ca         1 0VM       0.322000
     14 C19         -0.2060     0.0470    -0.6990 ca         1 0VM      -0.146500
     15 C20          1.1800    -0.1230    -0.5260 ca         1 0VM      -0.070000
     16 N1          -2.1130     1.5160    -1.1250 nu         1 0VM      -0.904200
     17 C7          -8.7330    -0.5080     0.9420 cg         1 0VM       0.327000
     18 N2          -9.8950    -0.5900     1.0340 n1         1 0VM      -0.458000
     19 C1           5.5370    -2.4690    -1.5400 ca         1 0VM      -0.212000
     20 C2           5.7230    -1.9760    -0.2430 ca         1 0VM       0.006000
     21 C3           4.9920    -0.8360     0.1500 ca         1 0VM      -0.281300
     22 C4           4.1050    -0.2540    -0.7780 ca         1 0VM       0.630300
     23 N5           3.9380    -0.7300    -2.0310 nb         1 0VM      -0.741000
     24 C6           4.6420    -1.8200    -2.3980 ca         1 0VM       0.409900
     25 F1           6.0120    -0.9220     2.3210 f          1 0VM      -0.110000
     26 F3           5.5780     1.0380     1.5050 f          1 0VM      -0.110000
     27 F2           3.9600    -0.2350     2.2150 f          1 0VM      -0.110000
     28 H1          -7.3300     1.1250    -0.7160 ha         1 0VM       0.128000
     29 H2          -4.4260    -1.7690     2.1790 ha         1 0VM       0.136000
     30 H3          -6.9220    -1.9280     2.3590 ha         1 0VM       0.127000
     31 H4          -4.7580     1.9770    -1.6070 hn         1 0VM       0.358000
     32 H6           2.1640     3.1310    -0.8870 ha         1 0VM       0.131000
     33 H7          -0.2860     3.4240    -1.1950 ha         1 0VM       0.137000
     34 H8          -0.8570    -0.8210    -0.6570 ha         1 0VM       0.137000
     35 H9           1.5770    -1.1160    -0.3330 ha         1 0VM       0.131000
     36 H10         -2.3530     2.3730    -1.6150 hn         1 0VM       0.497000
     37 H11          6.0810    -3.3440    -1.8850 ha         1 0VM       0.136000
     38 H12          6.4200    -2.4730     0.4310 ha         1 0VM       0.139000
     39 H13          4.4830    -2.1830    -3.4120 h4         1 0VM       0.027100
     40 O1           3.3990     0.8690    -0.4180 os         1 0VM      -0.355400
     41 C5           5.1360    -0.2400     1.5480 c3         1 0VM       0.378300
@<TRIPOS>BOND
     1     1     2 ar  
     2     1     6 ar  
     3     1    17 1   
     4     2     3 ar  
     5     2    28 1   
     6     3     4 ar  
     7     3     7 1   
     8     4     5 ar  
     9     4     9 1   
    10     5     6 ar  
    11     5    29 1   
    12     6    30 1   
    13     7     8 1   
    14     7    31 1   
    15     8     9 2   
    16     8    16 1   
    17    10    11 ar  
    18    10    15 ar  
    19    10    40 1   
    20    11    12 ar  
    21    11    32 1   
    22    12    13 ar  
    23    12    33 1   
    24    13    14 ar  
    25    13    16 1   
    26    14    15 ar  
    27    14    34 1   
    28    15    35 1   
    29    16    36 1   
    30    17    18 3   
    31    19    20 ar  
    32    19    24 ar  
    33    19    37 1   
    34    20    21 ar  
    35    20    38 1   
    36    21    22 ar  
    37    21    41 1   
    38    22    23 ar  
    39    22    40 1   
    40    23    24 ar  
    41    24    39 1   
    42    25    41 1   
    43    26    41 1   
    44    27    41 1   
@<TRIPOS>SUBSTRUCTURE
     1 0VM         1 TEMP              0 ****  ****    0 ROOT
