@<TRIPOS>MOLECULE
0VM
   41    44     1     0     0
SMALL
bcc


@<TRIPOS>ATOM
      1 C8          -7.4420    -0.3180     0.4280 ca         1 0VM      -0.021000
      2 C9          -6.7660     0.6800    -0.2800 ca         1 0VM      -0.083000
      3 C10         -5.3910     0.6370    -0.2290 ca         1 0VM      -0.093200
      4 C11         -4.6810    -0.3460     0.4900 ca         1 0VM       0.124400
      5 C13         -5.3750    -1.3320     1.1870 ca         1 0VM      -0.090000
      6 C14         -6.7560    -1.3100     1.1500 ca         1 0VM      -0.104000
      7 N3          -4.4190     1.4300    -0.7820 na         1 0VM      -0.299300
      8 C12         -3.2180     0.9180    -0.3930 cc         1 0VM       0.673700
      9 N4          -3.3340    -0.1450     0.3680 nd         1 0VM      -0.633100
     10 C15          1.9310     0.6510    -0.0050 ca         1 0VM       0.080100
     11 C16          1.5780     1.7210    -0.8090 ca         1 0VM      -0.088000
     12 C17          0.2410     1.9790    -1.0520 ca         1 0VM      -0.164500
     13 C18         -0.7570     1.1710    -0.5000 ca         1 0VM       0.183600
     14 C19         -0.3860     0.0950     0.3060 ca         1 0VM      -0.164500
     15 C20          0.9560    -0.1580     0.5480 ca         1 0VM      -0.088000
     16 N1          -2.0740     1.5110    -0.7980 nu         1 0VM      -0.710600
     17 C7          -8.8660    -0.3310     0.4180 cg         1 0VM       0.237800
     18 N2         -10.0200    -0.3460     0.4140 n1         1 0VM      -0.368800
     19 C1           5.4190    -2.2520    -1.8320 ca         1 0VM      -0.295300
     20 C2           6.0290    -1.5740    -0.7850 ca         1 0VM      -0.012000
     21 C3           5.3030    -0.6520    -0.0540 ca         1 0VM      -0.346600
     22 C4           3.9630    -0.4530    -0.4200 ca         1 0VM       0.695600
     23 N5           3.3820    -1.0860    -1.4080 nb         1 0VM      -0.741000
     24 C6           4.0950    -1.9700    -2.1020 ca         1 0VM       0.475200
     25 F1           7.1910    -0.2120     1.2660 f          1 0VM      -0.231300
     26 F3           5.8550     1.4290     0.8960 f          1 0VM      -0.231300
     27 F2           5.2770    -0.1450     2.2430 f          1 0VM      -0.231300
     28 H1          -7.3010     1.4410    -0.8310 ha         1 0VM       0.146000
     29 H2          -4.8480    -2.0970     1.7410 ha         1 0VM       0.154000
     30 H3          -7.3210    -2.0650     1.6790 ha         1 0VM       0.145000
     31 H4          -4.5660     2.2410    -1.3640 hn         1 0VM       0.307700
     32 H6           2.3380     2.3580    -1.2430 ha         1 0VM       0.149000
     33 H7          -0.0290     2.8230    -1.6760 ha         1 0VM       0.155000
     34 H8          -1.1360    -0.5440     0.7450 ha         1 0VM       0.155000
     35 H9           1.2330    -0.9940     1.1770 ha         1 0VM       0.149000
     36 H10         -2.1850     2.3220    -1.3870 hn         1 0VM       0.441800
     37 H11          5.9630    -2.9790    -2.4180 ha         1 0VM       0.154000
     38 H12          7.0650    -1.7730    -0.5500 ha         1 0VM       0.157000
     39 H13          3.5770    -2.4710    -2.9100 h4         1 0VM       0.027100
     40 O1           3.2620     0.4390     0.2960 os         1 0VM      -0.355400
     41 C5           5.9040     0.1050     1.0860 c3         1 0VM       0.742200
@<TRIPOS>BOND
     1     1     2 ar  
     2     1     6 ar  
     3     1    17 1   
     4     2     3 ar  
     5     2    28 1   
     6     3     4 ar  
     7     3     7 1   
     8     4     5 ar  
     9     4     9 1   
    10     5     6 ar  
    11     5    29 1   
    12     6    30 1   
    13     7     8 1   
    14     7    31 1   
    15     8     9 2   
    16     8    16 1   
    17    10    11 ar  
    18    10    15 ar  
    19    10    40 1   
    20    11    12 ar  
    21    11    32 1   
    22    12    13 ar  
    23    12    33 1   
    24    13    14 ar  
    25    13    16 1   
    26    14    15 ar  
    27    14    34 1   
    28    15    35 1   
    29    16    36 1   
    30    17    18 3   
    31    19    20 ar  
    32    19    24 ar  
    33    19    37 1   
    34    20    21 ar  
    35    20    38 1   
    36    21    22 ar  
    37    21    41 1   
    38    22    23 ar  
    39    22    40 1   
    40    23    24 ar  
    41    24    39 1   
    42    25    41 1   
    43    26    41 1   
    44    27    41 1   
@<TRIPOS>SUBSTRUCTURE
     1 0VM         1 TEMP              0 ****  ****    0 ROOT
