@<TRIPOS>MOLECULE
0VN
   40    42     1     0     0
SMALL
No Charge or Current Charge


@<TRIPOS>ATOM
      1 C4          -5.5240     0.0910     0.3550 ca         1 0VN      -0.024000
      2 C5          -4.6980    -0.8580    -0.2900 ca         1 0VN      -0.065000
      3 C6          -3.3150    -0.6420    -0.2510 ca         1 0VN      -0.095200
      4 C8          -2.7440     0.4310     0.3750 ca         1 0VN       0.127400
      5 C9          -3.5410     1.3850     1.0220 ca         1 0VN      -0.074000
      6 C10         -4.9430     1.2090     1.0090 ca         1 0VN      -0.086000
      7 N3          -2.2920    -1.3740    -0.7730 na         1 0VN      -0.352600
      8 C11         -1.1300    -0.7060    -0.4470 cc         1 0VN       0.677700
      9 N4          -1.3560     0.4030     0.2640 nd         1 0VN      -0.636100
     10 N1           0.1000    -1.1650    -0.7870 nu         1 0VN      -0.904200
     11 C7          -6.9520    -0.0790     0.3480 cg         1 0VN       0.328000
     12 N2          -8.1130    -0.2080     0.3470 n1         1 0VN      -0.461000
     13 C12          4.0460     0.2610    -0.1450 ca         1 0VN      -0.089300
     14 C13          2.9800     1.1650    -0.3800 ca         1 0VN      -0.079500
     15 C14          1.6710     0.6980    -0.5890 ca         1 0VN      -0.150500
     16 C15          1.3870    -0.6760    -0.5640 ca         1 0VN       0.310000
     17 C16          2.4340    -1.5810    -0.3470 ca         1 0VN      -0.150500
     18 C17          3.7460    -1.1210    -0.1360 ca         1 0VN      -0.079500
     19 C1           5.9840     0.2340     1.4850 c3         1 0VN      -0.082767
     20 C2           6.4230     0.1270    -1.0080 c3         1 0VN      -0.082767
     21 C3           5.6670     2.2750     0.0540 c3         1 0VN      -0.082767
     22 H1          -5.1170    -1.7240    -0.7980 ha         1 0VN       0.127000
     23 H2          -3.0890     2.2380     1.5210 ha         1 0VN       0.135000
     24 H3          -5.5770     1.9400     1.5070 ha         1 0VN       0.126000
     25 H4          -2.3560    -2.2270    -1.3080 hn         1 0VN       0.357000
     26 H6           0.0660    -2.1370    -1.0800 hn         1 0VN       0.494000
     27 H7           3.1400     2.2390    -0.4080 ha         1 0VN       0.114500
     28 H8           0.8780     1.4130    -0.7820 ha         1 0VN       0.130500
     29 H9           2.2360    -2.6490    -0.3340 ha         1 0VN       0.130500
     30 H10          4.5300    -1.8540     0.0350 ha         1 0VN       0.114500
     31 H11          5.9860    -0.8600     1.5480 hc         1 0VN       0.035033
     32 H12          7.0040     0.5790     1.6960 hc         1 0VN       0.035033
     33 H13          5.3270     0.6170     2.2760 hc         1 0VN       0.035033
     34 H14          6.0810     0.4330    -2.0050 hc         1 0VN       0.035033
     35 H15          7.4590     0.4670    -0.8870 hc         1 0VN       0.035033
     36 H16          6.4300    -0.9680    -0.9760 hc         1 0VN       0.035033
     37 H17          5.0590     2.7550     0.8300 hc         1 0VN       0.035033
     38 H18          6.7110     2.5650     0.2290 hc         1 0VN       0.035033
     39 H19          5.3730     2.6790    -0.9220 hc         1 0VN       0.035033
     40 C18          5.5080     0.7290     0.0920 c3         1 0VN       0.005300
@<TRIPOS>BOND
     1     1     2 ar  
     2     1     6 ar  
     3     1    11 1   
     4     2     3 ar  
     5     2    22 1   
     6     3     4 ar  
     7     3     7 1   
     8     4     5 ar  
     9     4     9 1   
    10     5     6 ar  
    11     5    23 1   
    12     6    24 1   
    13     7     8 1   
    14     7    25 1   
    15     8     9 2   
    16     8    10 1   
    17    10    16 1   
    18    10    26 1   
    19    11    12 3   
    20    13    14 ar  
    21    13    18 ar  
    22    13    40 1   
    23    14    15 ar  
    24    14    27 1   
    25    15    16 ar  
    26    15    28 1   
    27    16    17 ar  
    28    17    18 ar  
    29    17    29 1   
    30    18    30 1   
    31    19    31 1   
    32    19    32 1   
    33    19    33 1   
    34    19    40 1   
    35    20    34 1   
    36    20    35 1   
    37    20    36 1   
    38    20    40 1   
    39    21    37 1   
    40    21    38 1   
    41    21    39 1   
    42    21    40 1   
@<TRIPOS>SUBSTRUCTURE
     1 0VN         1 TEMP              0 ****  ****    0 ROOT
