@<TRIPOS>MOLECULE
0VN
   40    42     1     0     0
SMALL
bcc


@<TRIPOS>ATOM
      1 C4          -5.4600     0.1610     0.1470 ca         1 0VN      -0.024000
      2 C5          -4.6470    -0.9430    -0.1290 ca         1 0VN      -0.083000
      3 C6          -3.2890    -0.7190    -0.1120 ca         1 0VN      -0.095200
      4 C8          -2.7230     0.5430     0.1640 ca         1 0VN       0.127400
      5 C9          -3.5520     1.6280     0.4370 ca         1 0VN      -0.092000
      6 C10         -4.9200     1.4270     0.4260 ca         1 0VN      -0.104000
      7 N3          -2.2130    -1.5410    -0.3240 na         1 0VN      -0.302300
      8 C11         -1.0930    -0.7790    -0.1760 cc         1 0VN       0.677700
      9 N4          -1.3590     0.4740     0.1160 nd         1 0VN      -0.636100
     10 N1           0.1220    -1.3420    -0.3290 nu         1 0VN      -0.710600
     11 C7          -6.8750    -0.0030     0.1470 cg         1 0VN       0.238800
     12 N2          -8.0210    -0.1330     0.1540 n1         1 0VN      -0.371800
     13 C12          4.0330     0.2410    -0.0660 ca         1 0VN      -0.089300
     14 C13          2.9250     1.0640     0.1000 ca         1 0VN      -0.097500
     15 C14          1.6190     0.5900     0.0230 ca         1 0VN      -0.168500
     16 C15          1.3850    -0.7570    -0.2310 ca         1 0VN       0.171600
     17 C16          2.4860    -1.6010    -0.4050 ca         1 0VN      -0.168500
     18 C17          3.7720    -1.1080    -0.3230 ca         1 0VN      -0.097500
     19 C1           6.1730     0.0160     1.1910 c3         1 0VN      -0.082767
     20 C2           6.2070     0.4280    -1.2800 c3         1 0VN      -0.082767
     21 C3           5.5500     2.2410     0.2820 c3         1 0VN      -0.082767
     22 H1          -5.0710    -1.9150    -0.3440 ha         1 0VN       0.145000
     23 H2          -3.1390     2.6030     0.6540 ha         1 0VN       0.153000
     24 H3          -5.5860     2.2520     0.6360 ha         1 0VN       0.144000
     25 H4          -2.2450    -2.5230    -0.5520 hn         1 0VN       0.306700
     26 H6           0.1240    -2.3320    -0.5200 hn         1 0VN       0.438800
     27 H7           3.0550     2.1190     0.3010 ha         1 0VN       0.132500
     28 H8           0.7960     1.2740     0.1600 ha         1 0VN       0.148500
     29 H9           2.3320    -2.6560    -0.6030 ha         1 0VN       0.148500
     30 H10          4.5900    -1.8040    -0.4650 ha         1 0VN       0.132500
     31 H11          6.1740    -1.0670     1.0630 hc         1 0VN       0.035033
     32 H12          7.2150     0.3360     1.2650 hc         1 0VN       0.035033
     33 H13          5.6860     0.2390     2.1410 hc         1 0VN       0.035033
     34 H14          5.7350     0.9340    -2.1250 hc         1 0VN       0.035033
     35 H15          7.2430     0.7680    -1.2200 hc         1 0VN       0.035033
     36 H16          6.2250    -0.6400    -1.4990 hc         1 0VN       0.035033
     37 H17          5.0700     2.5260     1.2200 hc         1 0VN       0.035033
     38 H18          6.5950     2.5500     0.3440 hc         1 0VN       0.035033
     39 H19          5.0880     2.8160    -0.5230 hc         1 0VN       0.035033
     40 C18          5.4710     0.7360     0.0310 c3         1 0VN       0.005300
@<TRIPOS>BOND
     1     1     2 ar  
     2     1     6 ar  
     3     1    11 1   
     4     2     3 ar  
     5     2    22 1   
     6     3     4 ar  
     7     3     7 1   
     8     4     5 ar  
     9     4     9 1   
    10     5     6 ar  
    11     5    23 1   
    12     6    24 1   
    13     7     8 1   
    14     7    25 1   
    15     8     9 2   
    16     8    10 1   
    17    10    16 1   
    18    10    26 1   
    19    11    12 3   
    20    13    14 ar  
    21    13    18 ar  
    22    13    40 1   
    23    14    15 ar  
    24    14    27 1   
    25    15    16 ar  
    26    15    28 1   
    27    16    17 ar  
    28    17    18 ar  
    29    17    29 1   
    30    18    30 1   
    31    19    31 1   
    32    19    32 1   
    33    19    33 1   
    34    19    40 1   
    35    20    34 1   
    36    20    35 1   
    37    20    36 1   
    38    20    40 1   
    39    21    37 1   
    40    21    38 1   
    41    21    39 1   
    42    21    40 1   
@<TRIPOS>SUBSTRUCTURE
     1 0VN         1 TEMP              0 ****  ****    0 ROOT
