@<TRIPOS>MOLECULE
0VO
   64    65     1     0     0
SMALL
No Charge or Current Charge


@<TRIPOS>ATOM
      1 C1           5.2090     0.9410     0.9110 ca         1 0VO      -0.090000
      2 C5           3.1200     1.2060    -0.3090 ca         1 0VO      -0.099300
      3 C6           4.2410     1.7700     0.3230 ca         1 0VO      -0.088000
      4 C9          -4.9000     3.1530     0.8680 c3         1 0VO      -0.035200
      5 C10          2.0540     2.0930    -0.9400 c3         1 0VO       0.212900
      6 C11         -4.3430     0.7270     0.5170 ce         1 0VO      -0.175000
      7 C12         -3.5920    -0.4330     0.0150 ce         1 0VO      -0.171000
      8 C16         -3.8120    -1.7020     0.4290 c2         1 0VO      -0.247200
      9 C18         -2.8050     2.5200    -0.3890 ca         1 0VO      -0.018800
     10 C19         -2.8690     3.4840    -1.4150 ca         1 0VO      -0.141000
     11 C24         -3.0840    -2.9570    -0.0360 c3         1 0VO       0.220200
     12 C25         -1.7420    -3.1590     0.7340 c3         1 0VO      -0.078900
     13 C2           5.0790    -0.4630     0.8770 ca         1 0VO      -0.075300
     14 C3           3.9540    -1.0410     0.2270 ca         1 0VO      -0.092300
     15 C4           2.9860    -0.1940    -0.3520 ca         1 0VO      -0.056000
     16 C48          3.7330    -2.5570     0.1470 c3         1 0VO       0.210900
     17 O49          3.5030    -2.9660    -1.2070 oh         1 0VO      -0.654000
     18 C52          6.1580    -1.3060     1.5610 c3         1 0VO       0.206900
     19 O53          7.0810    -1.8260     0.5980 oh         1 0VO      -0.656000
     20 O1           0.8110     1.8470    -0.2640 os         1 0VO      -0.340100
     21 C14         -0.3760     2.4210    -0.6660 ca         1 0VO       0.144100
     22 C17         -1.5470     2.0090    -0.0170 ca         1 0VO      -0.134000
     23 C20         -1.6980     3.9140    -2.0630 ca         1 0VO      -0.076000
     24 C21         -0.4500     3.3820    -1.6960 ca         1 0VO      -0.201000
     25 C26         -4.0310    -4.1870     0.1200 c3         1 0VO      -0.078900
     26 O2          -2.7990    -2.7980    -1.4250 oh         1 0VO      -0.651000
     27 C28         -3.4940    -5.5420    -0.4020 c3         1 0VO      -0.085100
     28 C29         -0.7500    -1.9710     0.7020 c3         1 0VO      -0.085100
     29 C8          -4.1820     4.0310     1.9130 c3         1 0VO      -0.087100
     30 H1           6.0680     1.3950     1.4000 ha         1 0VO       0.133000
     31 H2           4.3610     2.8500     0.3660 ha         1 0VO       0.115000
     32 H4          -5.2770     3.7940     0.0630 hc         1 0VO       0.043700
     33 H5          -5.7940     2.7310     1.3430 hc         1 0VO       0.043700
     34 H6           2.3400     3.1490    -0.8520 h1         1 0VO       0.040700
     35 H7           1.9690     1.8450    -2.0060 h1         1 0VO       0.040700
     36 H8          -5.2390     0.5010     1.0960 ha         1 0VO       0.168000
     37 H10         -2.8190    -0.2330    -0.7300 ha         1 0VO       0.189000
     38 H12         -4.5750    -1.8920     1.1850 ha         1 0VO       0.169000
     39 H14         -3.8270     3.8920    -1.7270 ha         1 0VO       0.114000
     40 H15         -1.9660    -3.3910     1.7820 hc         1 0VO       0.041700
     41 H16         -1.2210    -4.0340     0.3290 hc         1 0VO       0.041700
     42 H17          2.1160    -0.6290    -0.8400 ha         1 0VO       0.136000
     43 H18          4.5920    -3.1040     0.5500 h1         1 0VO       0.022200
     44 H19          2.8650    -2.8150     0.7680 h1         1 0VO       0.022200
     45 H20          3.3920    -3.9420    -1.1910 ho         1 0VO       0.447000
     46 H21          6.6930    -0.6830     2.2910 h1         1 0VO       0.023700
     47 H22          5.6890    -2.1200     2.1280 h1         1 0VO       0.023700
     48 H23          7.7580    -2.3310     1.1000 ho         1 0VO       0.447000
     49 H24         -1.4770     1.2790     0.7850 ha         1 0VO       0.134000
     50 H25         -1.7600     4.6550    -2.8580 ha         1 0VO       0.109000
     51 H26          0.4400     3.7250    -2.2150 ha         1 0VO       0.115000
     52 H27         -4.2870    -4.3070     1.1810 hc         1 0VO       0.041700
     53 H28         -4.9750    -3.9730    -0.3970 hc         1 0VO       0.041700
     54 H29         -3.6050    -2.4040    -1.8180 ho         1 0VO       0.441000
     55 H30         -4.2660    -6.3150    -0.3040 hc         1 0VO       0.036200
     56 H31         -3.2150    -5.4780    -1.4600 hc         1 0VO       0.036200
     57 H32         -2.6200    -5.8720     0.1710 hc         1 0VO       0.036200
     58 H33          0.1930    -2.2520     1.1850 hc         1 0VO       0.036200
     59 H34         -0.5250    -1.6680    -0.3280 hc         1 0VO       0.036200
     60 H35         -1.1550    -1.1070     1.2410 hc         1 0VO       0.036200
     61 H36         -4.8710     4.7810     2.3190 hc         1 0VO       0.036367
     62 H37         -3.8130     3.4170     2.7430 hc         1 0VO       0.036367
     63 H38         -3.3310     4.5580     1.4660 hc         1 0VO       0.036367
     64 C7          -4.0230     2.0380     0.3020 cf         1 0VO      -0.051400
@<TRIPOS>BOND
     1     1     3 ar  
     2     1    13 ar  
     3     1    30 1   
     4     2     3 ar  
     5     2     5 1   
     6     2    15 ar  
     7     3    31 1   
     8     4    29 1   
     9     4    32 1   
    10     4    33 1   
    11     4    64 1   
    12     5    20 1   
    13     5    34 1   
    14     5    35 1   
    15     6     7 1   
    16     6    36 1   
    17     6    64 2   
    18     7     8 2   
    19     7    37 1   
    20     8    11 1   
    21     8    38 1   
    22     9    10 ar  
    23     9    22 ar  
    24     9    64 1   
    25    10    23 ar  
    26    10    39 1   
    27    11    12 1   
    28    11    25 1   
    29    11    26 1   
    30    12    28 1   
    31    12    40 1   
    32    12    41 1   
    33    13    14 ar  
    34    13    18 1   
    35    14    15 ar  
    36    14    16 1   
    37    15    42 1   
    38    16    17 1   
    39    16    43 1   
    40    16    44 1   
    41    17    45 1   
    42    18    19 1   
    43    18    46 1   
    44    18    47 1   
    45    19    48 1   
    46    20    21 1   
    47    21    22 ar  
    48    21    24 ar  
    49    22    49 1   
    50    23    24 ar  
    51    23    50 1   
    52    24    51 1   
    53    25    27 1   
    54    25    52 1   
    55    25    53 1   
    56    26    54 1   
    57    27    55 1   
    58    27    56 1   
    59    27    57 1   
    60    28    58 1   
    61    28    59 1   
    62    28    60 1   
    63    29    61 1   
    64    29    62 1   
    65    29    63 1   
@<TRIPOS>SUBSTRUCTURE
     1 0VO         1 TEMP              0 ****  ****    0 ROOT
