@<TRIPOS>MOLECULE
0VO
   64    65     1     0     0
SMALL
bcc


@<TRIPOS>ATOM
      1 C1           5.0410     1.1570     0.9900 ca         1 0VO      -0.108000
      2 C5           3.2000     1.1960    -0.5620 ca         1 0VO      -0.099300
      3 C6           4.0060     1.8400     0.3640 ca         1 0VO      -0.106000
      4 C9          -4.5770     3.2220     0.9970 c3         1 0VO      -0.035200
      5 C10          2.0600     1.9120    -1.2180 c3         1 0VO       0.189700
      6 C11         -4.1920     0.7820     0.7560 ce         1 0VO      -0.125000
      7 C12         -3.5950    -0.4450     0.2600 ce         1 0VO      -0.121000
      8 C16         -3.9790    -1.6560     0.6730 c2         1 0VO      -0.197200
      9 C18         -2.6530     2.3500    -0.3980 ca         1 0VO      -0.018800
     10 C19         -2.7940     3.1830    -1.5130 ca         1 0VO      -0.159000
     11 C24         -3.4260    -2.9730     0.1920 c3         1 0VO       0.197000
     12 C25         -2.6500    -3.6380     1.3380 c3         1 0VO      -0.078900
     13 C2           5.2840    -0.1800     0.7040 ca         1 0VO      -0.075300
     14 C3           4.4710    -0.8410    -0.2310 ca         1 0VO      -0.092300
     15 C4           3.4420    -0.1450    -0.8490 ca         1 0VO      -0.074000
     16 C48          4.7350    -2.2870    -0.5500 c3         1 0VO       0.187700
     17 O49          3.8080    -2.7610    -1.4880 oh         1 0VO      -0.591800
     18 C52          6.3980    -0.9350     1.3780 c3         1 0VO       0.183700
     19 O53          7.1380    -0.0840     2.2090 oh         1 0VO      -0.593800
     20 O1           0.8880     1.6280    -0.4640 os         1 0VO      -0.316900
     21 C14         -0.2820     2.1610    -0.8700 ca         1 0VO       0.144100
     22 C17         -1.3950     1.8540    -0.0840 ca         1 0VO      -0.152000
     23 C20         -1.6920     3.4810    -2.2930 ca         1 0VO      -0.094000
     24 C21         -0.4310     2.9790    -1.9860 ca         1 0VO      -0.219000
     25 C26         -4.6190    -3.8470    -0.2490 c3         1 0VO      -0.078900
     26 O2          -2.5160    -2.8060    -0.8750 oh         1 0VO      -0.588800
     27 C28         -4.2570    -5.2320    -0.7670 c3         1 0VO      -0.085100
     28 C29         -1.4240    -2.8670     1.8080 c3         1 0VO      -0.085100
     29 C8          -3.7230     4.0970     1.9130 c3         1 0VO      -0.087100
     30 H1           5.6590     1.6800     1.7050 ha         1 0VO       0.151000
     31 H2           3.8330     2.8830     0.6010 ha         1 0VO       0.133000
     32 H4          -4.9460     3.8310     0.1650 hc         1 0VO       0.043700
     33 H5          -5.4620     2.8750     1.5360 hc         1 0VO       0.043700
     34 H6           2.2460     2.9910    -1.2410 h1         1 0VO       0.040700
     35 H7           1.9360     1.5730    -2.2520 h1         1 0VO       0.040700
     36 H8          -5.0420     0.6570     1.4220 ha         1 0VO       0.118000
     37 H10         -2.8050    -0.3600    -0.4780 ha         1 0VO       0.139000
     38 H12         -4.7590    -1.7350     1.4270 ha         1 0VO       0.119000
     39 H14         -3.7640     3.5830    -1.7760 ha         1 0VO       0.132000
     40 H15         -3.3400    -3.7750     2.1750 hc         1 0VO       0.041700
     41 H16         -2.3450    -4.6400     1.0280 hc         1 0VO       0.041700
     42 H17          2.8160    -0.6470    -1.5750 ha         1 0VO       0.154000
     43 H18          5.7660    -2.3860    -0.9220 h1         1 0VO       0.022200
     44 H19          4.6940    -2.8710     0.3810 h1         1 0VO       0.022200
     45 H20          4.0190    -3.6790    -1.6780 ho         1 0VO       0.408000
     46 H21          5.9650    -1.7710     1.9460 h1         1 0VO       0.023700
     47 H22          7.0350    -1.3940     0.6080 h1         1 0VO       0.023700
     48 H23          7.8190    -0.6080     2.6410 ho         1 0VO       0.408000
     49 H24         -1.2620     1.2270     0.7900 ha         1 0VO       0.152000
     50 H25         -1.8050     4.1170    -3.1620 ha         1 0VO       0.127000
     51 H26          0.4070     3.2410    -2.6180 ha         1 0VO       0.133000
     52 H27         -5.3180    -3.9390     0.5870 hc         1 0VO       0.041700
     53 H28         -5.1640    -3.3030    -1.0300 hc         1 0VO       0.041700
     54 H29         -2.9900    -2.4310    -1.6250 ho         1 0VO       0.402000
     55 H30         -5.1470    -5.7360    -1.1450 hc         1 0VO       0.036200
     56 H31         -3.5370    -5.1820    -1.5840 hc         1 0VO       0.036200
     57 H32         -3.8360    -5.8680     0.0120 hc         1 0VO       0.036200
     58 H33         -0.9550    -3.3830     2.6470 hc         1 0VO       0.036200
     59 H34         -0.6770    -2.7760     1.0200 hc         1 0VO       0.036200
     60 H35         -1.6790    -1.8600     2.1400 hc         1 0VO       0.036200
     61 H36         -4.2860     4.9660     2.2540 hc         1 0VO       0.036367
     62 H37         -3.3990     3.5410     2.7920 hc         1 0VO       0.036367
     63 H38         -2.8320     4.4580     1.3990 hc         1 0VO       0.036367
     64 C7          -3.8220     2.0380     0.4560 cf         1 0VO      -0.051400
@<TRIPOS>BOND
     1     1     3 ar  
     2     1    13 ar  
     3     1    30 1   
     4     2     3 ar  
     5     2     5 1   
     6     2    15 ar  
     7     3    31 1   
     8     4    29 1   
     9     4    32 1   
    10     4    33 1   
    11     4    64 1   
    12     5    20 1   
    13     5    34 1   
    14     5    35 1   
    15     6     7 1   
    16     6    36 1   
    17     6    64 2   
    18     7     8 2   
    19     7    37 1   
    20     8    11 1   
    21     8    38 1   
    22     9    10 ar  
    23     9    22 ar  
    24     9    64 1   
    25    10    23 ar  
    26    10    39 1   
    27    11    12 1   
    28    11    25 1   
    29    11    26 1   
    30    12    28 1   
    31    12    40 1   
    32    12    41 1   
    33    13    14 ar  
    34    13    18 1   
    35    14    15 ar  
    36    14    16 1   
    37    15    42 1   
    38    16    17 1   
    39    16    43 1   
    40    16    44 1   
    41    17    45 1   
    42    18    19 1   
    43    18    46 1   
    44    18    47 1   
    45    19    48 1   
    46    20    21 1   
    47    21    22 ar  
    48    21    24 ar  
    49    22    49 1   
    50    23    24 ar  
    51    23    50 1   
    52    24    51 1   
    53    25    27 1   
    54    25    52 1   
    55    25    53 1   
    56    26    54 1   
    57    27    55 1   
    58    27    56 1   
    59    27    57 1   
    60    28    58 1   
    61    28    59 1   
    62    28    60 1   
    63    29    61 1   
    64    29    62 1   
    65    29    63 1   
@<TRIPOS>SUBSTRUCTURE
     1 0VO         1 TEMP              0 ****  ****    0 ROOT
