@<TRIPOS>MOLECULE
0VP
   75    77     1     0     0
SMALL
No Charge or Current Charge


@<TRIPOS>ATOM
      1 O1           2.4610     0.8760     0.6070 os         1 0VP      -0.342100
      2 O2          -6.4970    -1.9200    -1.3810 oh         1 0VP      -0.654000
      3 C9          -2.9320    -0.1840     1.4980 ca         1 0VP      -0.098000
      4 C10          3.7220     1.5480     0.7670 c3         1 0VP       0.212900
      5 C11         -3.0700     0.4970    -0.8340 ca         1 0VP      -0.060300
      6 C12         -4.2200    -0.3060    -0.9820 ca         1 0VP      -0.103000
      7 C13         -4.0790    -0.9760     1.3440 ca         1 0VP      -0.109000
      8 C14          1.2560     1.5370     0.7230 ca         1 0VP       0.139100
      9 C15         -2.5600     1.2670    -2.0520 c3         1 0VP      -0.036100
     10 C16         -4.7420    -1.0570     0.1000 ca         1 0VP      -0.106300
     11 C17          0.0810     0.7960     0.5390 ca         1 0VP      -0.135000
     12 C18         -1.1930     1.3990     0.6320 cp         1 0VP       0.002000
     13 C19         -1.2740     2.7870     0.9320 ca         1 0VP      -0.101300
     14 C20         -0.0910     3.5280     1.1210 ca         1 0VP      -0.075000
     15 C21          1.1680     2.9130     1.0160 ca         1 0VP      -0.197000
     16 C22         -1.5190     0.4620    -2.8570 c3         1 0VP      -0.073400
     17 C23         -0.9720     1.2280    -4.0770 c3         1 0VP      -0.089100
     18 C24         -6.0150    -1.9300    -0.0320 c3         1 0VP       0.234300
     19 C25         -7.1530    -1.3700     0.8760 c3         1 0VP      -0.080400
     20 C26         -5.6720    -3.4130     0.3210 c3         1 0VP      -0.080400
     21 C27         -3.1710     3.4440     2.5020 c3         1 0VP      -0.086100
     22 C28         -6.8110    -4.4480     0.1440 c3         1 0VP      -0.085600
     23 C29         -7.4850     0.1270     0.6650 c3         1 0VP      -0.085600
     24 C1           6.4980    -1.0000     1.4660 ca         1 0VP      -0.090000
     25 C2           6.9250    -1.3490     0.1660 ca         1 0VP      -0.075300
     26 C3           6.2760    -0.7570    -0.9520 ca         1 0VP      -0.092300
     27 C4           5.2440     0.1810    -0.7390 ca         1 0VP      -0.059000
     28 C5           4.8390     0.5340     0.5610 ca         1 0VP      -0.099300
     29 C6           5.4680    -0.0670     1.6640 ca         1 0VP      -0.086000
     30 O49          7.7790    -0.3590    -2.8230 oh         1 0VP      -0.656000
     31 C52          8.0530    -2.3790     0.0040 c3         1 0VP       0.207900
     32 O53          9.1110    -2.1500     0.9460 oh         1 0VP      -0.656000
     33 C8          -2.6150     3.5080     1.0670 c3         1 0VP      -0.027100
     34 C7          -2.4120     0.5660     0.4220 cp         1 0VP      -0.034000
     35 H1          -5.8040    -2.3500    -1.9230 ho         1 0VP       0.442000
     36 H2          -2.4400    -0.1400     2.4660 ha         1 0VP       0.117000
     37 H3           3.8250     2.3560     0.0310 h1         1 0VP       0.040700
     38 H4           3.8020     1.9870     1.7700 h1         1 0VP       0.040700
     39 H5          -4.7040    -0.3290    -1.9540 ha         1 0VP       0.119000
     40 H6          -4.4520    -1.5240     2.2060 ha         1 0VP       0.111000
     41 H7          -3.3970     1.5260    -2.7110 hc         1 0VP       0.050200
     42 H8          -2.1180     2.2240    -1.7490 hc         1 0VP       0.050200
     43 H9           0.1530    -0.2650     0.3150 ha         1 0VP       0.131000
     44 H10         -0.1460     4.5900     1.3530 ha         1 0VP       0.110000
     45 H11          2.0570     3.5180     1.1670 ha         1 0VP       0.116000
     46 H12         -0.6810     0.1920    -2.2030 hc         1 0VP       0.042200
     47 H13         -1.9720    -0.4780    -3.1970 hc         1 0VP       0.042200
     48 H14         -0.4780     2.1550    -3.7630 hc         1 0VP       0.031700
     49 H15         -0.2400     0.6150    -4.6160 hc         1 0VP       0.031700
     50 H16         -1.7820     1.4830    -4.7700 hc         1 0VP       0.031700
     51 H17         -8.0710    -1.9450     0.7090 hc         1 0VP       0.044450
     52 H18         -6.8850    -1.5200     1.9290 hc         1 0VP       0.044450
     53 H19         -4.8200    -3.7320    -0.2930 hc         1 0VP       0.044450
     54 H20         -5.3300    -3.4720     1.3610 hc         1 0VP       0.044450
     55 H21         -4.1250     3.9800     2.5670 hc         1 0VP       0.034033
     56 H22         -3.3400     2.4040     2.8060 hc         1 0VP       0.034033
     57 H23         -2.4690     3.9010     3.2090 hc         1 0VP       0.034033
     58 H24         -7.6500    -4.2360     0.8170 hc         1 0VP       0.036033
     59 H25         -7.1850    -4.4610    -0.8870 hc         1 0VP       0.036033
     60 H26         -6.4440    -5.4540     0.3790 hc         1 0VP       0.036033
     61 H27         -6.6250     0.7620     0.9080 hc         1 0VP       0.036033
     62 H28         -7.7780     0.3210    -0.3740 hc         1 0VP       0.036033
     63 H29         -8.3180     0.4250     1.3130 hc         1 0VP       0.036033
     64 H30          6.9700    -1.4550     2.3350 ha         1 0VP       0.134000
     65 H31          4.7480     0.6390    -1.5930 ha         1 0VP       0.134000
     66 H32          5.1590     0.1870     2.6750 ha         1 0VP       0.117000
     67 H33          6.8360    -2.1900    -2.4740 h1         1 0VP       0.023200
     68 H34          5.7830    -0.8980    -3.0460 h1         1 0VP       0.023200
     69 H35          7.9460    -0.6090    -3.7590 ho         1 0VP       0.447000
     70 H36          7.6320    -3.3830     0.1470 h1         1 0VP       0.023700
     71 H37          8.4660    -2.3420    -1.0110 h1         1 0VP       0.023700
     72 H38          9.7950    -2.8340     0.7730 ho         1 0VP       0.447000
     73 H39         -2.5070     4.5620     0.7790 hc         1 0VP       0.046700
     74 H40         -3.3580     3.0890     0.3790 hc         1 0VP       0.046700
     75 C48          6.6400    -1.1120    -2.3940 c3         1 0VP       0.209900
@<TRIPOS>BOND
     1     1     4 1   
     2     1     8 1   
     3     2    18 1   
     4     2    35 1   
     5     3     7 ar  
     6     3    34 ar  
     7     3    36 1   
     8     4    28 1   
     9     4    37 1   
    10     4    38 1   
    11     5     6 ar  
    12     5     9 1   
    13     5    34 ar  
    14     6    10 ar  
    15     6    39 1   
    16     7    10 ar  
    17     7    40 1   
    18     8    11 ar  
    19     8    15 ar  
    20     9    16 1   
    21     9    41 1   
    22     9    42 1   
    23    10    18 1   
    24    11    12 ar  
    25    11    43 1   
    26    12    13 ar  
    27    12    34 1   
    28    13    14 ar  
    29    13    33 1   
    30    14    15 ar  
    31    14    44 1   
    32    15    45 1   
    33    16    17 1   
    34    16    46 1   
    35    16    47 1   
    36    17    48 1   
    37    17    49 1   
    38    17    50 1   
    39    18    19 1   
    40    18    20 1   
    41    19    23 1   
    42    19    51 1   
    43    19    52 1   
    44    20    22 1   
    45    20    53 1   
    46    20    54 1   
    47    21    33 1   
    48    21    55 1   
    49    21    56 1   
    50    21    57 1   
    51    22    58 1   
    52    22    59 1   
    53    22    60 1   
    54    23    61 1   
    55    23    62 1   
    56    23    63 1   
    57    24    25 ar  
    58    24    29 ar  
    59    24    64 1   
    60    25    26 ar  
    61    25    31 1   
    62    26    27 ar  
    63    26    75 1   
    64    27    28 ar  
    65    27    65 1   
    66    28    29 ar  
    67    29    66 1   
    68    30    69 1   
    69    30    75 1   
    70    31    32 1   
    71    31    70 1   
    72    31    71 1   
    73    32    72 1   
    74    33    73 1   
    75    33    74 1   
    76    67    75 1   
    77    68    75 1   
@<TRIPOS>SUBSTRUCTURE
     1 0VP         1 TEMP              0 ****  ****    0 ROOT
