@<TRIPOS>MOLECULE
0VP
   75    77     1     0     0
SMALL
bcc


@<TRIPOS>ATOM
      1 O1           2.4470     0.8480     0.3500 os         1 0VP      -0.318900
      2 O2          -6.4630    -1.8390    -1.2520 oh         1 0VP      -0.591800
      3 C9          -2.7400    -0.2300     1.3850 ca         1 0VP      -0.116000
      4 C10          3.6780     1.5240     0.5720 c3         1 0VP       0.189700
      5 C11         -3.1010     0.5890    -0.8440 ca         1 0VP      -0.060300
      6 C12         -4.2300    -0.2280    -0.9190 ca         1 0VP      -0.121000
      7 C13         -3.8600    -1.0370     1.2900 ca         1 0VP      -0.127000
      8 C14          1.2980     1.5440     0.4910 ca         1 0VP       0.139100
      9 C15         -2.7050     1.4000    -2.0460 c3         1 0VP      -0.036100
     10 C16         -4.6280    -1.0510     0.1260 ca         1 0VP      -0.106300
     11 C17          0.1160     0.8180     0.3460 ca         1 0VP      -0.153000
     12 C18         -1.1240     1.4250     0.4780 cp         1 0VP       0.002000
     13 C19         -1.2080     2.7960     0.7690 ca         1 0VP      -0.101300
     14 C20         -0.0210     3.5050     0.8970 ca         1 0VP      -0.093000
     15 C21          1.2260     2.9060     0.7610 ca         1 0VP      -0.215000
     16 C22         -1.7980     0.6170    -2.9980 c3         1 0VP      -0.073400
     17 C23         -1.4160     1.4300    -4.2270 c3         1 0VP      -0.089100
     18 C24         -5.8720    -1.9310     0.0280 c3         1 0VP       0.211100
     19 C25         -6.9260    -1.4330     1.0260 c3         1 0VP      -0.080400
     20 C26         -5.4760    -3.3930     0.3160 c3         1 0VP      -0.080400
     21 C27         -2.9970     3.3530     2.4490 c3         1 0VP      -0.086100
     22 C28         -6.6150    -4.4010     0.2400 c3         1 0VP      -0.085600
     23 C29         -7.3660     0.0090     0.8140 c3         1 0VP      -0.085600
     24 C1           6.1010    -1.2220     1.5180 ca         1 0VP      -0.108000
     25 C2           6.7790    -1.4410     0.3250 ca         1 0VP      -0.075300
     26 C3           6.4460    -0.6770    -0.8020 ca         1 0VP      -0.092300
     27 C4           5.4470     0.2820    -0.7030 ca         1 0VP      -0.077000
     28 C5           4.7720     0.5040     0.4930 ca         1 0VP      -0.099300
     29 C6           5.1050    -0.2590     1.6030 ca         1 0VP      -0.104000
     30 O49          6.7310    -0.0210    -3.0830 oh         1 0VP      -0.593800
     31 C52          7.8720    -2.4700     0.2260 c3         1 0VP       0.184700
     32 O53          8.0180    -3.1530     1.4410 oh         1 0VP      -0.593800
     33 C8          -2.5240     3.4870     1.0020 c3         1 0VP      -0.027100
     34 C7          -2.3440     0.5890     0.3300 cp         1 0VP      -0.034000
     35 H1          -5.8750    -2.2520    -1.8940 ho         1 0VP       0.403000
     36 H2          -2.1590    -0.2320     2.3000 ha         1 0VP       0.135000
     37 H3           3.8250     2.3060    -0.1810 h1         1 0VP       0.040700
     38 H4           3.6730     2.0040     1.5560 h1         1 0VP       0.040700
     39 H5          -4.8140    -0.1970    -1.8310 ha         1 0VP       0.137000
     40 H6          -4.1330    -1.6500     2.1400 ha         1 0VP       0.129000
     41 H7          -3.6040     1.7110    -2.5870 hc         1 0VP       0.050200
     42 H8          -2.1940     2.3170    -1.7440 hc         1 0VP       0.050200
     43 H9           0.1740    -0.2420     0.1270 ha         1 0VP       0.149000
     44 H10         -0.0630     4.5660     1.1110 ha         1 0VP       0.128000
     45 H11          2.1130     3.5140     0.8700 ha         1 0VP       0.134000
     46 H12         -0.8960     0.3080    -2.4630 hc         1 0VP       0.042200
     47 H13         -2.3060    -0.3030    -3.3010 hc         1 0VP       0.042200
     48 H14         -0.8660     2.3300    -3.9480 hc         1 0VP       0.031700
     49 H15         -0.7860     0.8540    -4.9060 hc         1 0VP       0.031700
     50 H16         -2.3010     1.7450    -4.7820 hc         1 0VP       0.031700
     51 H17         -7.8000    -2.0890     0.9720 hc         1 0VP       0.044450
     52 H18         -6.5250    -1.5490     2.0360 hc         1 0VP       0.044450
     53 H19         -4.6900    -3.6770    -0.3930 hc         1 0VP       0.044450
     54 H20         -5.0130    -3.4510     1.3030 hc         1 0VP       0.044450
     55 H21         -3.9370     3.8850     2.6050 hc         1 0VP       0.034033
     56 H22         -3.1560     2.3080     2.7150 hc         1 0VP       0.034033
     57 H23         -2.2610     3.7640     3.1410 hc         1 0VP       0.034033
     58 H24         -7.3440    -4.2550     1.0370 hc         1 0VP       0.036033
     59 H25         -7.1440    -4.3480    -0.7120 hc         1 0VP       0.036033
     60 H26         -6.2240    -5.4130     0.3410 hc         1 0VP       0.036033
     61 H27         -6.5320     0.7040     0.9130 hc         1 0VP       0.036033
     62 H28         -7.8070     0.1550    -0.1720 hc         1 0VP       0.036033
     63 H29         -8.1180     0.2870     1.5530 hc         1 0VP       0.036033
     64 H30          6.3480    -1.8020     2.3970 ha         1 0VP       0.152000
     65 H31          5.1870     0.8790    -1.5680 ha         1 0VP       0.152000
     66 H32          4.5930    -0.1000     2.5450 ha         1 0VP       0.135000
     67 H33          8.2560    -0.8110    -1.9230 h1         1 0VP       0.023200
     68 H34          7.0180    -1.9590    -2.4060 h1         1 0VP       0.023200
     69 H35          7.2090    -0.2140    -3.8940 ho         1 0VP       0.408000
     70 H36          7.6380    -3.1630    -0.5960 h1         1 0VP       0.023700
     71 H37          8.8060    -1.9660    -0.0630 h1         1 0VP       0.023700
     72 H38          8.7170    -3.8040     1.3350 ho         1 0VP       0.408000
     73 H39         -2.4200     4.5460     0.7540 hc         1 0VP       0.046700
     74 H40         -3.2920     3.0870     0.3370 hc         1 0VP       0.046700
     75 C48          7.1750    -0.9150    -2.0980 c3         1 0VP       0.186700
@<TRIPOS>BOND
     1     1     4 1   
     2     1     8 1   
     3     2    18 1   
     4     2    35 1   
     5     3     7 ar  
     6     3    34 ar  
     7     3    36 1   
     8     4    28 1   
     9     4    37 1   
    10     4    38 1   
    11     5     6 ar  
    12     5     9 1   
    13     5    34 ar  
    14     6    10 ar  
    15     6    39 1   
    16     7    10 ar  
    17     7    40 1   
    18     8    11 ar  
    19     8    15 ar  
    20     9    16 1   
    21     9    41 1   
    22     9    42 1   
    23    10    18 1   
    24    11    12 ar  
    25    11    43 1   
    26    12    13 ar  
    27    12    34 1   
    28    13    14 ar  
    29    13    33 1   
    30    14    15 ar  
    31    14    44 1   
    32    15    45 1   
    33    16    17 1   
    34    16    46 1   
    35    16    47 1   
    36    17    48 1   
    37    17    49 1   
    38    17    50 1   
    39    18    19 1   
    40    18    20 1   
    41    19    23 1   
    42    19    51 1   
    43    19    52 1   
    44    20    22 1   
    45    20    53 1   
    46    20    54 1   
    47    21    33 1   
    48    21    55 1   
    49    21    56 1   
    50    21    57 1   
    51    22    58 1   
    52    22    59 1   
    53    22    60 1   
    54    23    61 1   
    55    23    62 1   
    56    23    63 1   
    57    24    25 ar  
    58    24    29 ar  
    59    24    64 1   
    60    25    26 ar  
    61    25    31 1   
    62    26    27 ar  
    63    26    75 1   
    64    27    28 ar  
    65    27    65 1   
    66    28    29 ar  
    67    29    66 1   
    68    30    69 1   
    69    30    75 1   
    70    31    32 1   
    71    31    70 1   
    72    31    71 1   
    73    32    72 1   
    74    33    73 1   
    75    33    74 1   
    76    67    75 1   
    77    68    75 1   
@<TRIPOS>SUBSTRUCTURE
     1 0VP         1 TEMP              0 ****  ****    0 ROOT
