@<TRIPOS>MOLECULE
0VS
   54    55     1     0     0
SMALL
abcg2


@<TRIPOS>ATOM
      1 C13         -5.2890     1.1440    -0.3040 c3         1 0VS      -0.091400
      2 C15         -7.3690     2.4860    -0.6660 c          1 0VS       0.727000
      3 C20         -1.0460    -2.2150     0.8090 c          1 0VS       0.576100
      4 C22         -0.4590    -4.5910     0.7730 c3         1 0VS      -0.056000
      5 C02          4.7410     1.7480    -1.5450 c          1 0VS       0.571900
      6 C03          5.4830     1.6100    -0.2730 ca         1 0VS      -0.128600
      7 C04          4.7970     1.3830     0.9180 ca         1 0VS      -0.121600
      8 C05          3.3190     1.3070     0.9230 c          1 0VS       0.576900
      9 C06          2.6100     1.3300    -0.3860 cc         1 0VS      -0.050600
     10 C08          0.5510    -0.3220     0.5540 c3         1 0VS       0.051600
     11 C09         -0.7950    -0.8720     0.1020 c3         1 0VS       0.030700
     12 N10         -1.8330     0.0730     0.4090 ns         1 0VS      -0.495900
     13 C11         -3.0990    -0.1170    -0.0260 c          1 0VS       0.602100
     14 C12         -4.1360     0.7720     0.6180 c3         1 0VS      -0.155400
     15 C14         -6.3710     1.9790     0.4030 c3         1 0VS       0.017500
     16 N18         -7.0760     1.2840     1.4670 n8         1 0VS      -0.999200
     17 O19         -3.3730    -0.9650    -0.8600 o          1 0VS      -0.595100
     18 C23          0.3910    -5.5450    -0.0920 c          1 0VS       0.714000
     19 O24          0.4330    -6.7230     0.3060 o          1 0VS      -0.734000
     20 O25          0.9420    -5.0610    -1.0970 o          1 0VS      -0.734000
     21 C27          3.2640     1.5380    -1.5480 cd         1 0VS      -0.102400
     22 C30          5.4990     1.2480     2.1110 ca         1 0VS      -0.066000
     23 C31          6.8820     1.3370     2.1110 ca         1 0VS      -0.104000
     24 C32          7.5670     1.5660     0.9230 ca         1 0VS      -0.108000
     25 C33          6.8700     1.7060    -0.2670 ca         1 0VS      -0.070000
     26 H1          -4.9010     1.7180    -1.1490 hc         1 0VS       0.058700
     27 H2          -5.7460     0.2390    -0.7150 hc         1 0VS       0.058700
     28 H3          -0.0790    -4.6040     1.7980 h1         1 0VS       0.035700
     29 H4          -1.4840    -4.9730     0.8210 h1         1 0VS       0.035700
     30 H5           3.1980     1.0760    -3.6350 hc         1 0VS       0.064033
     31 H6           1.6080     1.1860    -2.8580 hc         1 0VS       0.064033
     32 H7           2.5280     2.6410    -3.2200 hc         1 0VS       0.064033
     33 H8           1.3420    -1.0260     0.3010 h1         1 0VS       0.084200
     34 H9           0.5620    -0.1560     1.6310 h1         1 0VS       0.084200
     35 H10         -0.7650    -1.0340    -0.9790 h1         1 0VS       0.093700
     36 H11         -1.7000     0.6730     1.2090 hn         1 0VS       0.308500
     37 H12         -3.6680     1.6780     1.0140 hc         1 0VS       0.046200
     38 H13         -4.5000     0.2170     1.4900 hc         1 0VS       0.046200
     39 H14         -5.8750     2.8560     0.8360 h1         1 0VS       0.036700
     40 H16         -7.7070     0.6170     1.0400 hn         1 0VS       0.379500
     41 H17         -6.4350     0.7600     2.0490 hn         1 0VS       0.379500
     42 H19          0.0840    -3.1510    -0.6220 hn         1 0VS       0.340500
     43 H21          4.9660     1.0720     3.0350 ha         1 0VS       0.139000
     44 H22          7.4280     1.2270     3.0380 ha         1 0VS       0.113000
     45 H23          8.6460     1.6360     0.9260 ha         1 0VS       0.110000
     46 H24          7.4040     1.8860    -1.1900 ha         1 0VS       0.132000
     47 O16         -6.9500     3.3920    -1.4140 o          1 0VS      -0.736000
     48 N21         -0.4360    -3.2540     0.2400 ns         1 0VS      -0.461900
     49 S07          0.8540     1.2470    -0.3360 ss         1 0VS      -0.281600
     50 C28          2.6100     1.6050    -2.8870 c3         1 0VS      -0.059900
     51 O01          5.3170     1.9960    -2.5830 o          1 0VS      -0.518100
     52 O17         -8.4810     1.9300    -0.7150 o          1 0VS      -0.736000
     53 O26         -1.7180    -2.2850     1.8250 o          1 0VS      -0.640100
     54 O29          2.7000     1.2390     1.9610 o          1 0VS      -0.492100
@<TRIPOS>BOND
     1     1    14 1   
     2     1    15 1   
     3     1    26 1   
     4     1    27 1   
     5     2    15 1   
     6     2    47 1   
     7     2    52 1   
     8     3    11 1   
     9     3    48 1   
    10     3    53 2   
    11     4    18 1   
    12     4    28 1   
    13     4    29 1   
    14     4    48 1   
    15     5     6 1   
    16     5    21 1   
    17     5    51 2   
    18     6     7 ar  
    19     6    25 ar  
    20     7     8 1   
    21     7    22 ar  
    22     8     9 1   
    23     8    54 2   
    24     9    21 2   
    25     9    49 1   
    26    10    11 1   
    27    10    33 1   
    28    10    34 1   
    29    10    49 1   
    30    11    12 1   
    31    11    35 1   
    32    12    13 1   
    33    12    36 1   
    34    13    14 1   
    35    13    17 2   
    36    14    37 1   
    37    14    38 1   
    38    15    16 1   
    39    15    39 1   
    40    16    40 1   
    41    16    41 1   
    42    18    19 1   
    43    18    20 1   
    44    21    50 1   
    45    22    23 ar  
    46    22    43 1   
    47    23    24 ar  
    48    23    44 1   
    49    24    25 ar  
    50    24    45 1   
    51    25    46 1   
    52    30    50 1   
    53    31    50 1   
    54    32    50 1   
    55    42    48 1   
@<TRIPOS>SUBSTRUCTURE
     1 0VS         1 TEMP              0 ****  ****    0 ROOT
