@<TRIPOS>MOLECULE
0VS
   54    55     1     0     0
SMALL
No Charge or Current Charge


@<TRIPOS>ATOM
      1 C13         -4.0010     1.8450     0.1210 c3         1 0VS      -0.091400
      2 C15         -4.4720     4.2970     0.7950 c          1 0VS       0.727000
      3 C20         -0.9980    -3.1790     1.1350 c          1 0VS       0.576100
      4 C22          0.0640    -5.4730     1.3550 c3         1 0VS      -0.056000
      5 C02          3.9480     1.5940    -1.9190 c          1 0VS       0.571900
      6 C03          4.5590     2.0110    -0.6000 ca         1 0VS      -0.128600
      7 C04          3.8250     1.9190     0.6080 ca         1 0VS      -0.121600
      8 C05          2.4070     1.4050     0.6190 c          1 0VS       0.576900
      9 C06          1.8450     0.9920    -0.6990 cc         1 0VS      -0.050600
     10 C08          0.2180    -1.1060     0.2980 c3         1 0VS       0.051600
     11 C09         -1.0950    -1.9240     0.2230 c3         1 0VS       0.030700
     12 N10         -2.2640    -1.0940     0.6040 ns         1 0VS      -0.495900
     13 C11         -3.1580    -0.5270    -0.2770 c          1 0VS       0.602100
     14 C12         -4.2480     0.3330     0.3740 c3         1 0VS      -0.155400
     15 C14         -4.9840     2.7940     0.8600 c3         1 0VS       0.017500
     16 N18         -6.3960     2.5430     0.3930 n8         1 0VS      -0.999200
     17 O19         -3.1120    -0.7280    -1.4830 o          1 0VS      -0.595100
     18 C23          0.8780    -6.4730     0.4840 c          1 0VS       0.714000
     19 O24          0.7390    -7.6680     0.7020 o          1 0VS      -0.734000
     20 O25          1.5880    -6.0290    -0.4090 o          1 0VS      -0.734000
     21 C27          2.5410     1.0730    -1.9030 cd         1 0VS      -0.102400
     22 C30          4.4320     2.3190     1.8220 ca         1 0VS      -0.066000
     23 C31          5.7490     2.8030     1.8390 ca         1 0VS      -0.104000
     24 C32          6.4760     2.8930     0.6450 ca         1 0VS      -0.108000
     25 C33          5.8860     2.5010    -0.5660 ca         1 0VS      -0.070000
     26 H1          -2.9810     2.0860     0.4500 hc         1 0VS       0.058700
     27 H2          -4.0310     2.0480    -0.9570 hc         1 0VS       0.058700
     28 H3           0.6300    -5.2750     2.2740 h1         1 0VS       0.035700
     29 H4          -0.8940    -5.9370     1.6220 h1         1 0VS       0.035700
     30 H5           2.6480     0.7960    -4.0970 hc         1 0VS       0.064033
     31 H6           1.6930    -0.4110    -3.2510 hc         1 0VS       0.064033
     32 H7           1.0580     1.2250    -3.4890 hc         1 0VS       0.064033
     33 H8           1.0710    -1.7490     0.0410 h1         1 0VS       0.084200
     34 H9           0.3600    -0.7470     1.3240 h1         1 0VS       0.084200
     35 H10         -1.2260    -2.2870    -0.8050 h1         1 0VS       0.093700
     36 H11         -2.4210    -0.9130     1.5890 hn         1 0VS       0.308500
     37 H12         -4.2610     0.1620     1.4570 hc         1 0VS       0.046200
     38 H13         -5.2150     0.0510    -0.0590 hc         1 0VS       0.046200
     39 H14         -4.9550     2.5120     1.9220 h1         1 0VS       0.036700
     40 H16         -6.4820     2.8630    -0.5790 hn         1 0VS       0.379500
     41 H17         -6.5530     1.5310     0.3360 hn         1 0VS       0.379500
     42 H19          0.2610    -4.0450    -0.2400 hn         1 0VS       0.340500
     43 H21          3.8840     2.2560     2.7600 ha         1 0VS       0.139000
     44 H22          6.2050     3.1070     2.7790 ha         1 0VS       0.113000
     45 H23          7.4980     3.2680     0.6570 ha         1 0VS       0.110000
     46 H24          6.4700     2.5800    -1.4810 ha         1 0VS       0.132000
     47 O16         -4.1680     4.8530     1.8430 o          1 0VS      -0.736000
     48 N21         -0.1930    -4.1920     0.6560 ns         1 0VS      -0.461900
     49 S07          0.2030     0.3360    -0.8690 ss         1 0VS      -0.281600
     50 C28          1.9630     0.6520    -3.2550 c3         1 0VS      -0.059900
     51 O01          4.6030     1.6890    -2.9530 o          1 0VS      -0.518100
     52 O17         -4.4640     4.8680    -0.2890 o          1 0VS      -0.736000
     53 O26         -1.5900    -3.2800     2.2050 o          1 0VS      -0.640100
     54 O29          1.7650     1.3420     1.6610 o          1 0VS      -0.492100
@<TRIPOS>BOND
     1     1    14 1   
     2     1    15 1   
     3     1    26 1   
     4     1    27 1   
     5     2    15 1   
     6     2    47 1   
     7     2    52 1   
     8     3    11 1   
     9     3    48 1   
    10     3    53 2   
    11     4    18 1   
    12     4    28 1   
    13     4    29 1   
    14     4    48 1   
    15     5     6 1   
    16     5    21 1   
    17     5    51 2   
    18     6     7 ar  
    19     6    25 ar  
    20     7     8 1   
    21     7    22 ar  
    22     8     9 1   
    23     8    54 2   
    24     9    21 2   
    25     9    49 1   
    26    10    11 1   
    27    10    33 1   
    28    10    34 1   
    29    10    49 1   
    30    11    12 1   
    31    11    35 1   
    32    12    13 1   
    33    12    36 1   
    34    13    14 1   
    35    13    17 2   
    36    14    37 1   
    37    14    38 1   
    38    15    16 1   
    39    15    39 1   
    40    16    40 1   
    41    16    41 1   
    42    18    19 1   
    43    18    20 1   
    44    21    50 1   
    45    22    23 ar  
    46    22    43 1   
    47    23    24 ar  
    48    23    44 1   
    49    24    25 ar  
    50    24    45 1   
    51    25    46 1   
    52    30    50 1   
    53    31    50 1   
    54    32    50 1   
    55    42    48 1   
@<TRIPOS>SUBSTRUCTURE
     1 0VS         1 TEMP              0 ****  ****    0 ROOT
