@<TRIPOS>MOLECULE
0VT
   23    22     1     0     0
SMALL
No Charge or Current Charge


@<TRIPOS>ATOM
      1 C4          -0.1880    -0.1180     0.6270 c3         1 0VT      -0.026200
      2 C5          -0.9880    -0.3390    -0.6740 c3         1 0VT      -0.181400
      3 C6          -2.4060     0.2350    -0.5630 c          1 0VT       0.570100
      4 C7           2.3790     1.3400    -0.4820 c3         1 0VT      -0.056900
      5 C8          -3.5150    -0.7440    -0.1850 c3         1 0VT      -0.202100
      6 C1           3.6790    -0.7540     0.0580 c3         1 0VT      -0.056900
      7 C2           2.3220    -0.0750     0.0740 c2         1 0VT      -0.107400
      8 C3           1.2150    -0.6900     0.5320 c2         1 0VT      -0.229200
      9 O9          -2.6390     1.4210    -0.7630 o          1 0VT      -0.522100
     10 H42         -0.1570     0.9540     0.8580 hc         1 0VT       0.056700
     11 H41         -0.7190    -0.5860     1.4660 hc         1 0VT       0.056700
     12 H51         -0.4620     0.1530    -1.5010 hc         1 0VT       0.060700
     13 H52         -1.0450    -1.4200    -0.8460 hc         1 0VT       0.060700
     14 H73          2.7860     1.3440    -1.5000 hc         1 0VT       0.039533
     15 H72          1.3960     1.8200    -0.5310 hc         1 0VT       0.039533
     16 H71          3.0240     1.9770     0.1350 hc         1 0VT       0.039533
     17 H83         -3.2270    -1.2770     0.7280 hc         1 0VT       0.060033
     18 H82         -4.4930    -0.2590    -0.0840 hc         1 0VT       0.060033
     19 H81         -3.5420    -1.5520    -0.9260 hc         1 0VT       0.060033
     20 H11          4.4070    -0.1970     0.6610 hc         1 0VT       0.039533
     21 H13          3.6310    -1.7730     0.4620 hc         1 0VT       0.039533
     22 H12          4.0740    -0.8250    -0.9620 hc         1 0VT       0.039533
     23 H31          1.2850    -1.7130     0.9070 ha         1 0VT       0.163000
@<TRIPOS>BOND
     1     1     2 1   
     2     1     8 1   
     3     1    10 1   
     4     1    11 1   
     5     2     3 1   
     6     2    12 1   
     7     2    13 1   
     8     3     5 1   
     9     3     9 2   
    10     4     7 1   
    11     4    14 1   
    12     4    15 1   
    13     4    16 1   
    14     5    17 1   
    15     5    18 1   
    16     5    19 1   
    17     6     7 1   
    18     6    20 1   
    19     6    21 1   
    20     6    22 1   
    21     7     8 2   
    22     8    23 1   
@<TRIPOS>SUBSTRUCTURE
     1 0VT         1 TEMP              0 ****  ****    0 ROOT
