@<TRIPOS>MOLECULE
0VT
   23    22     1     0     0
SMALL
bcc


@<TRIPOS>ATOM
      1 C4          -0.0630     0.1870     0.7280 c3         1 0VT      -0.026200
      2 C5          -1.1060    -0.5360    -0.1170 c3         1 0VT      -0.181400
      3 C6          -2.5120    -0.0100     0.0130 c          1 0VT       0.570100
      4 C7           2.4880     1.3650    -0.6250 c3         1 0VT      -0.056900
      5 C8          -3.5680    -0.7900    -0.7230 c3         1 0VT      -0.202100
      6 C1           3.6440    -0.7930    -0.0240 c3         1 0VT      -0.056900
      7 C2           2.3800     0.0170     0.0230 c2         1 0VT      -0.107400
      8 C3           1.2780    -0.4680     0.6010 c2         1 0VT      -0.179200
      9 O9          -2.7780     0.9690     0.6750 o          1 0VT      -0.522100
     10 H42         -0.0250     1.2390     0.4440 hc         1 0VT       0.056700
     11 H41         -0.3720     0.1620     1.7770 hc         1 0VT       0.056700
     12 H51         -0.8370    -0.4890    -1.1790 hc         1 0VT       0.060700
     13 H52         -1.1240    -1.6070     0.1150 hc         1 0VT       0.060700
     14 H73          2.7900     1.2620    -1.6710 hc         1 0VT       0.039533
     15 H72          1.5620     1.9370    -0.6040 hc         1 0VT       0.039533
     16 H71          3.2620     1.9650    -0.1400 hc         1 0VT       0.039533
     17 H83         -3.7780    -1.7100    -0.1710 hc         1 0VT       0.060033
     18 H82         -4.4930    -0.2250    -0.8160 hc         1 0VT       0.060033
     19 H81         -3.2200    -1.0910    -1.7110 hc         1 0VT       0.060033
     20 H11          4.4610    -0.2730     0.4830 hc         1 0VT       0.039533
     21 H13          3.5230    -1.7690     0.4460 hc         1 0VT       0.039533
     22 H12          3.9700    -0.9510    -1.0550 hc         1 0VT       0.039533
     23 H31          1.3360    -1.4690     1.0230 ha         1 0VT       0.113000
@<TRIPOS>BOND
     1     1     2 1   
     2     1     8 1   
     3     1    10 1   
     4     1    11 1   
     5     2     3 1   
     6     2    12 1   
     7     2    13 1   
     8     3     5 1   
     9     3     9 2   
    10     4     7 1   
    11     4    14 1   
    12     4    15 1   
    13     4    16 1   
    14     5    17 1   
    15     5    18 1   
    16     5    19 1   
    17     6     7 1   
    18     6    20 1   
    19     6    21 1   
    20     6    22 1   
    21     7     8 2   
    22     8    23 1   
@<TRIPOS>SUBSTRUCTURE
     1 0VT         1 TEMP              0 ****  ****    0 ROOT
