@<TRIPOS>MOLECULE
0VU
   54    57     1     0     0
SMALL
No Charge or Current Charge


@<TRIPOS>ATOM
      1 C1           4.7360     3.2210    -0.1920 ca         1 0VU      -0.126000
      2 C2           3.3370     3.3290    -0.2080 ca         1 0VU      -0.071000
      3 C3           2.5170     2.1970    -0.4580 cp         1 0VU      -0.171500
      4 C4           3.1680     0.9510    -0.6740 ca         1 0VU      -0.023000
      5 C5           4.5740     0.8270    -0.6330 ca         1 0VU      -0.151600
      6 C6           5.3540     1.9820    -0.4120 ca         1 0VU      -0.066000
      7 C7           5.2060    -0.5230    -0.9000 c          1 0VU       0.611700
      8 N1           6.4550    -0.8230    -0.3050 n          1 0VU      -0.395800
      9 N2          -1.7600     2.3850    -0.5230 nb         1 0VU      -0.223000
     10 N3           0.3040     1.1790    -0.3020 nb         1 0VU      -0.249000
     11 N4          -1.7000     0.0630    -0.1380 nu         1 0VU      -0.926900
     12 C8           7.2720    -1.9790    -0.7690 c6         1 0VU       0.092000
     13 O1           4.6840    -1.3020    -1.6890 o          1 0VU      -0.591100
     14 C9           7.1710    -3.1810     0.1990 c6         1 0VU      -0.102900
     15 C10          7.5590    -2.7610     1.6350 c6         1 0VU      -0.074400
     16 C11          6.7090    -1.5530     2.0900 c6         1 0VU      -0.102900
     17 C12          6.8020    -0.3840     1.0780 c6         1 0VU       0.092000
     18 C13          1.0170     2.3090    -0.4880 cp         1 0VU       0.231500
     19 C14          0.3370     3.5300    -0.7130 ca         1 0VU      -0.256000
     20 C15         -1.0670     3.5200    -0.7230 ca         1 0VU       0.147900
     21 C16         -1.0360     1.2700    -0.3120 ca         1 0VU       0.387900
     22 C17         -3.0370    -0.3060     0.0320 ca         1 0VU       0.381000
     23 C18         -3.9860     0.5550     0.6110 ca         1 0VU      -0.185000
     24 C19         -5.3170     0.1400     0.7790 ca         1 0VU       0.025000
     25 C20         -5.7070    -1.1510     0.3730 ca         1 0VU      -0.319500
     26 C21         -4.7560    -2.0230    -0.1920 ca         1 0VU       0.025000
     27 C22         -3.4270    -1.5970    -0.3540 ca         1 0VU      -0.185000
     28 S1          -7.4040    -1.6800     0.5910 sy         1 0VU       1.131600
     29 O2          -7.4960    -3.1320     0.4640 o          1 0VU      -0.548500
     30 O3          -8.0420    -0.9310     1.6730 o          1 0VU      -0.548500
     31 N5          -8.0960    -1.1230    -0.7810 n8         1 0VU      -0.999100
     32 H1           5.3440     4.1050    -0.0120 ha         1 0VU       0.120000
     33 H2           2.8930     4.3020    -0.0180 ha         1 0VU       0.117000
     34 H3           2.5740     0.0610    -0.8740 ha         1 0VU       0.145000
     35 H4           6.4410     1.9270    -0.4230 ha         1 0VU       0.123000
     36 H5          -1.0720    -0.7350    -0.2250 hn         1 0VU       0.514000
     37 H6           6.9670    -2.2900    -1.7780 h1         1 0VU       0.058200
     38 H7           8.3220    -1.6590    -0.8400 h1         1 0VU       0.058200
     39 H8           6.1460    -3.5740     0.1900 hc         1 0VU       0.051200
     40 H9           7.8240    -3.9940    -0.1450 hc         1 0VU       0.051200
     41 H10          7.4190    -3.6030     2.3260 hc         1 0VU       0.042700
     42 H11          8.6260    -2.4990     1.6700 hc         1 0VU       0.042700
     43 H12          5.6590    -1.8600     2.1950 hc         1 0VU       0.051200
     44 H13          7.0370    -1.2140     3.0820 hc         1 0VU       0.051200
     45 H14          7.8240     0.0220     1.0770 h1         1 0VU       0.058200
     46 H15          6.1330     0.4150     1.4220 h1         1 0VU       0.058200
     47 H16          0.8700     4.4580    -0.8930 ha         1 0VU       0.139000
     48 H17         -1.6420     4.4280    -0.8970 h4         1 0VU       0.027100
     49 H18         -3.6980     1.5430     0.9520 ha         1 0VU       0.136500
     50 H19         -6.0380     0.8230     1.2280 ha         1 0VU       0.136000
     51 H20         -5.0360    -3.0290    -0.5050 ha         1 0VU       0.136000
     52 H21         -2.7010    -2.2760    -0.7910 ha         1 0VU       0.136500
     53 H22         -7.2950    -1.0130    -1.3970 hn         1 0VU       0.470000
     54 H23         -8.5530    -1.9650    -1.1210 hn         1 0VU       0.470000
@<TRIPOS>BOND
     1     1     2 ar  
     2     1     6 ar  
     3     1    32 1   
     4     2     3 ar  
     5     2    33 1   
     6     3     4 ar  
     7     3    18 1   
     8     4     5 ar  
     9     4    34 1   
    10     5     6 ar  
    11     5     7 1   
    12     6    35 1   
    13     7     8 1   
    14     7    13 2   
    15     8    12 1   
    16     8    17 1   
    17     9    20 ar  
    18     9    21 ar  
    19    10    18 ar  
    20    10    21 ar  
    21    11    21 1   
    22    11    22 1   
    23    11    36 1   
    24    12    14 1   
    25    12    37 1   
    26    12    38 1   
    27    14    15 1   
    28    14    39 1   
    29    14    40 1   
    30    15    16 1   
    31    15    41 1   
    32    15    42 1   
    33    16    17 1   
    34    16    43 1   
    35    16    44 1   
    36    17    45 1   
    37    17    46 1   
    38    18    19 ar  
    39    19    20 ar  
    40    19    47 1   
    41    20    48 1   
    42    22    23 ar  
    43    22    27 ar  
    44    23    24 ar  
    45    23    49 1   
    46    24    25 ar  
    47    24    50 1   
    48    25    26 ar  
    49    25    28 1   
    50    26    27 ar  
    51    26    51 1   
    52    27    52 1   
    53    28    29 2   
    54    28    30 2   
    55    28    31 1   
    56    31    53 1   
    57    31    54 1   
@<TRIPOS>SUBSTRUCTURE
     1 0VU         1 TEMP              0 ****  ****    0 ROOT
