@<TRIPOS>MOLECULE
0VU
   54    57     1     0     0
SMALL
bcc


@<TRIPOS>ATOM
      1 C1           4.8620     3.4420    -0.2370 ca         1 0VU      -0.144000
      2 C2           3.4780     3.5220    -0.1930 ca         1 0VU      -0.089000
      3 C3           2.6980     2.3930    -0.4380 cp         1 0VU      -0.171500
      4 C4           3.3290     1.1870    -0.7350 ca         1 0VU      -0.041000
      5 C5           4.7140     1.1000    -0.7630 ca         1 0VU      -0.151600
      6 C6           5.4830     2.2340    -0.5150 ca         1 0VU      -0.084000
      7 C7           5.3460    -0.1930    -1.1790 c          1 0VU       0.678700
      8 N1           6.2690    -0.7300    -0.3580 n          1 0VU      -0.462800
      9 N2          -1.5050     2.4170    -0.2660 nb         1 0VU      -0.749000
     10 N3           0.5840     1.3070    -0.2110 nb         1 0VU      -0.775000
     11 N4          -1.3160     0.1060     0.0230 nu         1 0VU      -0.733300
     12 C8           6.9490    -1.9600    -0.7420 c6         1 0VU       0.092000
     13 O1           5.0320    -0.6830    -2.2570 o          1 0VU      -0.591100
     14 C9           6.3510    -3.1580    -0.0150 c6         1 0VU      -0.102900
     15 C10          6.3940    -2.9390     1.4940 c6         1 0VU      -0.074400
     16 C11          5.7510    -1.6070     1.8680 c6         1 0VU      -0.102900
     17 C12          6.3540    -0.4550     1.0710 c6         1 0VU       0.092000
     18 C13          1.2230     2.4540    -0.3860 cp         1 0VU       0.559800
     19 C14          0.5170     3.6500    -0.5220 ca         1 0VU      -0.404600
     20 C15         -0.8580     3.5610    -0.4500 ca         1 0VU       0.476200
     21 C16         -0.7460     1.3350    -0.1600 ca         1 0VU       0.913900
     22 C17         -2.6310    -0.2910     0.1440 ca         1 0VU       0.242600
     23 C18         -3.7380     0.5670     0.0920 ca         1 0VU      -0.203000
     24 C19         -5.0150     0.0550     0.2300 ca         1 0VU       0.007000
     25 C20         -5.2130    -1.3060     0.4180 ca         1 0VU      -0.319500
     26 C21         -4.1270    -2.1690     0.4720 ca         1 0VU       0.007000
     27 C22         -2.8510    -1.6630     0.3350 ca         1 0VU      -0.203000
     28 S1          -6.8500    -1.9230     0.6040 sy         1 0VU       1.273200
     29 O2          -6.7630    -3.3020     1.0690 o          1 0VU      -0.619300
     30 O3          -7.6460    -0.9890     1.3890 o          1 0VU      -0.619300
     31 N5          -7.4240    -1.8020    -0.9430 n8         1 0VU      -0.888700
     32 H1           5.4580     4.3240    -0.0440 ha         1 0VU       0.138000
     33 H2           3.0160     4.4690     0.0540 ha         1 0VU       0.135000
     34 H3           2.7290     0.3090    -0.9380 ha         1 0VU       0.163000
     35 H4           6.5640     2.1760    -0.5440 ha         1 0VU       0.141000
     36 H5          -0.6330    -0.6340     0.0870 hn         1 0VU       0.458800
     37 H6           6.9000    -2.0810    -1.8210 h1         1 0VU       0.058200
     38 H7           8.0040    -1.8510    -0.4710 h1         1 0VU       0.058200
     39 H8           5.3180    -3.3010    -0.3460 hc         1 0VU       0.051200
     40 H9           6.9030    -4.0600    -0.2910 hc         1 0VU       0.051200
     41 H10          5.8980    -3.7590     2.0150 hc         1 0VU       0.042700
     42 H11          7.4380    -2.9410     1.8270 hc         1 0VU       0.042700
     43 H12          4.6750    -1.6440     1.6730 hc         1 0VU       0.051200
     44 H13          5.8760    -1.4060     2.9340 hc         1 0VU       0.051200
     45 H14          7.4090    -0.3260     1.3340 h1         1 0VU       0.058200
     46 H15          5.8500     0.4760     1.3140 h1         1 0VU       0.058200
     47 H16          1.0000     4.5990    -0.6940 ha         1 0VU       0.157000
     48 H17         -1.4720     4.4490    -0.5490 h4         1 0VU       0.027100
     49 H18         -3.6030     1.6260    -0.0500 ha         1 0VU       0.154500
     50 H19         -5.8540     0.7370     0.1880 ha         1 0VU       0.154000
     51 H20         -4.2630    -3.2310     0.6200 ha         1 0VU       0.154000
     52 H21         -2.0080    -2.3420     0.3790 ha         1 0VU       0.154500
     53 H22         -7.0090    -2.4890    -1.5660 hn         1 0VU       0.414800
     54 H23         -8.4370    -1.8800    -0.9680 hn         1 0VU       0.414800
@<TRIPOS>BOND
     1     1     2 ar  
     2     1     6 ar  
     3     1    32 1   
     4     2     3 ar  
     5     2    33 1   
     6     3     4 ar  
     7     3    18 1   
     8     4     5 ar  
     9     4    34 1   
    10     5     6 ar  
    11     5     7 1   
    12     6    35 1   
    13     7     8 1   
    14     7    13 2   
    15     8    12 1   
    16     8    17 1   
    17     9    20 ar  
    18     9    21 ar  
    19    10    18 ar  
    20    10    21 ar  
    21    11    21 1   
    22    11    22 1   
    23    11    36 1   
    24    12    14 1   
    25    12    37 1   
    26    12    38 1   
    27    14    15 1   
    28    14    39 1   
    29    14    40 1   
    30    15    16 1   
    31    15    41 1   
    32    15    42 1   
    33    16    17 1   
    34    16    43 1   
    35    16    44 1   
    36    17    45 1   
    37    17    46 1   
    38    18    19 ar  
    39    19    20 ar  
    40    19    47 1   
    41    20    48 1   
    42    22    23 ar  
    43    22    27 ar  
    44    23    24 ar  
    45    23    49 1   
    46    24    25 ar  
    47    24    50 1   
    48    25    26 ar  
    49    25    28 1   
    50    26    27 ar  
    51    26    51 1   
    52    27    52 1   
    53    28    29 2   
    54    28    30 2   
    55    28    31 1   
    56    31    53 1   
    57    31    54 1   
@<TRIPOS>SUBSTRUCTURE
     1 0VU         1 TEMP              0 ****  ****    0 ROOT
