@<TRIPOS>MOLECULE
0VV
   25    26     1     0     0
SMALL
bcc


@<TRIPOS>ATOM
      1 C1           4.5480     0.2880    -0.3740 ca         1 0VV      -0.148000
      2 C2           4.3170    -1.0000     0.0900 ca         1 0VV      -0.088000
      3 C3           3.0390    -1.3960     0.4560 ca         1 0VV      -0.163000
      4 C8           1.0540     1.7600    -0.0690 c6         1 0VV       0.285100
      5 C10         -0.3990    -0.1760     0.3010 c2         1 0VV       0.984100
      6 C4           1.9920    -0.4850     0.3710 ca         1 0VV       0.162600
      7 C5           2.2150     0.8120    -0.0780 ca         1 0VV      -0.149300
      8 C6           3.4930     1.1870    -0.4610 ca         1 0VV      -0.083000
      9 N7           0.6960    -0.8490     0.7270 nu         1 0VV      -0.703600
     10 N9          -0.1910     1.0280    -0.2270 nu         1 0VV      -0.885200
     11 N11         -1.5420    -0.8180     0.4330 ne         1 0VV      -0.936300
     12 S12         -2.9700    -0.1020     0.2510 sy         1 0VV       1.454300
     13 N13         -3.8500    -1.4190    -0.2200 n8         1 0VV      -0.863700
     14 O14         -3.5340     0.3090     1.5300 o          1 0VV      -0.667800
     15 O15         -2.9450     0.9410    -0.7850 o          1 0VV      -0.667800
     16 H1           5.5440     0.5930    -0.6650 ha         1 0VV       0.140000
     17 H2           5.1320    -1.7080     0.1610 ha         1 0VV       0.139000
     18 H3           2.8540    -2.4050     0.8030 ha         1 0VV       0.142000
     19 H4           1.0380     2.3360     0.8620 h1         1 0VV       0.062200
     20 H5           1.1290     2.4730    -0.8880 h1         1 0VV       0.062200
     21 H6           3.6680     2.1950    -0.8160 ha         1 0VV       0.137000
     22 H7           0.5300    -1.7740     1.0950 hn         1 0VV       0.477800
     23 H9          -3.5730    -1.7630    -1.1330 hn         1 0VV       0.408800
     24 H10         -4.8420    -1.2050    -0.2230 hn         1 0VV       0.408800
     25 H11         -0.9900     1.5190    -0.6000 hn         1 0VV       0.490800
@<TRIPOS>BOND
     1     1     2 ar  
     2     1     8 ar  
     3     1    16 1   
     4     2     3 ar  
     5     2    17 1   
     6     3     6 ar  
     7     3    18 1   
     8     4     7 1   
     9     4    10 1   
    10     4    19 1   
    11     4    20 1   
    12     5     9 1   
    13     5    10 1   
    14     5    11 2   
    15     6     7 ar  
    16     6     9 1   
    17     7     8 ar  
    18     8    21 1   
    19     9    22 1   
    20    10    25 1   
    21    11    12 1   
    22    12    13 1   
    23    12    14 2   
    24    12    15 2   
    25    13    23 1   
    26    13    24 1   
@<TRIPOS>SUBSTRUCTURE
     1 0VV         1 TEMP              0 ****  ****    0 ROOT
