@<TRIPOS>MOLECULE
0VW
   21    21     1     0     0
SMALL
abcg2


@<TRIPOS>ATOM
      1 C1           0.6490     0.3380     0.0340 c2         1 0VW       1.002100
      2 N2          -0.5770     0.8220    -0.1210 ne         1 0VW      -1.020300
      3 N3           1.6360     1.2380     0.0050 nu         1 0VW      -0.926900
      4 C4           3.0350     0.9360     0.2290 c6         1 0VW       0.227300
      5 C5           3.3180    -0.4880    -0.2110 c6         1 0VW      -0.116400
      6 C6           2.3220    -1.4200     0.4480 c6         1 0VW       0.227300
      7 N7           0.9690    -0.9500     0.2050 nu         1 0VW      -0.926900
      8 S8          -1.8700    -0.0980    -0.3500 sy         1 0VW       1.321700
      9 N9          -3.1260     0.8230     0.1940 n8         1 0VW      -0.968100
     10 O10         -2.1180    -0.2970    -1.7740 o          1 0VW      -0.586000
     11 O11         -1.8680    -1.3040     0.4860 o          1 0VW      -0.586000
     12 H2           3.6290     1.6470    -0.3430 h1         1 0VW       0.054450
     13 H3           3.2940     1.0670     1.2830 h1         1 0VW       0.054450
     14 H4           3.2430    -0.5660    -1.2980 hc         1 0VW       0.069700
     15 H5           4.3310    -0.7700     0.0740 hc         1 0VW       0.069700
     16 H6           2.4040    -2.4270     0.0420 h1         1 0VW       0.054450
     17 H7           2.5160    -1.4830     1.5220 h1         1 0VW       0.054450
     18 H8           0.2120    -1.5950     0.3730 hn         1 0VW       0.533500
     19 H9          -3.2600     1.6580    -0.3660 hn         1 0VW       0.464000
     20 H10         -3.0200     1.0810     1.1690 hn         1 0VW       0.464000
     21 H1           1.3590     2.1930    -0.1540 hn         1 0VW       0.533500
@<TRIPOS>BOND
     1     1     2 2   
     2     1     3 1   
     3     1     7 1   
     4     2     8 1   
     5     3     4 1   
     6     3    21 1   
     7     4     5 1   
     8     4    12 1   
     9     4    13 1   
    10     5     6 1   
    11     5    14 1   
    12     5    15 1   
    13     6     7 1   
    14     6    16 1   
    15     6    17 1   
    16     7    18 1   
    17     8     9 1   
    18     8    10 2   
    19     8    11 2   
    20     9    19 1   
    21     9    20 1   
@<TRIPOS>SUBSTRUCTURE
     1 0VW         1 TEMP              0 ****  ****    0 ROOT
