@<TRIPOS>MOLECULE
0VW
   21    21     1     0     0
SMALL
No Charge or Current Charge


@<TRIPOS>ATOM
      1 C1           0.5560     0.3010    -0.2000 c2         1 0VW       1.002100
      2 N2          -0.5980     0.7700    -0.3530 ne         1 0VW      -1.020300
      3 N3           1.5620     1.1610    -0.3240 nu         1 0VW      -0.926900
      4 C4           2.8930     0.9790     0.2680 c6         1 0VW       0.227300
      5 C5           3.3340    -0.4670    -0.0070 c6         1 0VW      -0.116400
      6 C6           2.2220    -1.4270     0.4470 c6         1 0VW       0.227300
      7 N7           0.9520    -0.9840    -0.1460 nu         1 0VW      -0.926900
      8 S8          -1.9250    -0.1360    -0.3900 sy         1 0VW       1.321700
      9 N9          -2.5970     0.7450     0.7390 n8         1 0VW      -0.968100
     10 O10         -2.6790     0.1230    -1.6080 o          1 0VW      -0.586000
     11 O11         -1.7170    -1.4670     0.1710 o          1 0VW      -0.586000
     12 H2           3.6200     1.6870    -0.1580 h1         1 0VW       0.054450
     13 H3           2.8540     1.1480     1.3550 h1         1 0VW       0.054450
     14 H4           3.5240    -0.6000    -1.0800 hc         1 0VW       0.069700
     15 H5           4.2720    -0.6890     0.5170 hc         1 0VW       0.069700
     16 H6           2.4640    -2.4570     0.1460 h1         1 0VW       0.054450
     17 H7           2.1550    -1.4070     1.5460 h1         1 0VW       0.054450
     18 H8           0.1420    -1.5780     0.0110 hn         1 0VW       0.533500
     19 H9          -3.3010     1.1940     0.1650 hn         1 0VW       0.464000
     20 H10         -1.8310     1.4140     0.7400 hn         1 0VW       0.464000
     21 H1           1.1760     2.0930    -0.3930 hn         1 0VW       0.533500
@<TRIPOS>BOND
     1     1     2 2   
     2     1     3 1   
     3     1     7 1   
     4     2     8 1   
     5     3     4 1   
     6     3    21 1   
     7     4     5 1   
     8     4    12 1   
     9     4    13 1   
    10     5     6 1   
    11     5    14 1   
    12     5    15 1   
    13     6     7 1   
    14     6    16 1   
    15     6    17 1   
    16     7    18 1   
    17     8     9 1   
    18     8    10 2   
    19     8    11 2   
    20     9    19 1   
    21     9    20 1   
@<TRIPOS>SUBSTRUCTURE
     1 0VW         1 TEMP              0 ****  ****    0 ROOT
