@<TRIPOS>MOLECULE
0VX
   17    17     1     0     0
SMALL
bcc


@<TRIPOS>ATOM
      1 C2           0.9660    -0.4340     0.0480 c2         1 0VX       0.942500
      2 O4           1.2700     0.8480    -0.0820 os         1 0VX      -0.420400
      3 N1           2.0670    -1.1760     0.1330 nu         1 0VX      -0.859200
      4 N3          -0.2360    -0.9070     0.1010 ne         1 0VX      -0.864300
      5 C5           3.2540    -0.3980    -0.1490 c5         1 0VX       0.179800
      6 C6           2.6970     1.0110     0.0510 c5         1 0VX       0.123400
      7 S7          -1.4940     0.1170     0.0010 sy         1 0VX       1.448300
      8 N8          -2.6890    -0.9980     0.2700 n8         1 0VX      -0.862700
      9 O9          -1.5700     1.0520     1.1150 o          1 0VX      -0.645800
     10 O10         -1.5700     0.6980    -1.3360 o          1 0VX      -0.645800
     11 H1           2.0330    -2.1820     0.0880 hn         1 0VX       0.484800
     12 H2           4.0580    -0.6220     0.5480 h1         1 0VX       0.069200
     13 H3           3.6110    -0.5680    -1.1660 h1         1 0VX       0.069200
     14 H4           3.0350     1.7250    -0.6950 h1         1 0VX       0.083700
     15 H5           2.9040     1.3980     1.0490 h1         1 0VX       0.083700
     16 H6          -2.7280    -1.7000    -0.4620 hn         1 0VX       0.407800
     17 H7          -3.5910    -0.5350     0.3360 hn         1 0VX       0.407800
@<TRIPOS>BOND
     1     1     2 1   
     2     1     3 1   
     3     1     4 2   
     4     2     6 1   
     5     3     5 1   
     6     3    11 1   
     7     4     7 1   
     8     5     6 1   
     9     5    12 1   
    10     5    13 1   
    11     6    14 1   
    12     6    15 1   
    13     7     8 1   
    14     7     9 2   
    15     7    10 2   
    16     8    16 1   
    17     8    17 1   
@<TRIPOS>SUBSTRUCTURE
     1 0VX         1 TEMP              0 ****  ****    0 ROOT
