@<TRIPOS>MOLECULE
0VX
   17    17     1     0     0
SMALL
No Charge or Current Charge


@<TRIPOS>ATOM
      1 C2           0.8670    -0.2920     0.1780 c2         1 0VX       0.942500
      2 O4           1.2810     0.9990     0.0730 os         1 0VX      -0.443600
      3 N1           1.8890    -1.1770     0.2180 nu         1 0VX      -0.914400
      4 N3          -0.2880    -0.7680    -0.0110 ne         1 0VX      -0.864300
      5 C5           3.0790    -0.4500    -0.2780 c5         1 0VX       0.179800
      6 C6           2.7090     0.9540     0.2430 c5         1 0VX       0.146600
      7 S7          -1.5330     0.2420    -0.0910 sy         1 0VX       1.306700
      8 N8          -2.5680    -0.8440     0.4550 n8         1 0VX      -0.973100
      9 O9          -1.4640     1.2960     0.9160 o          1 0VX      -0.575000
     10 O10         -1.9030     0.4770    -1.4800 o          1 0VX      -0.575000
     11 H1           1.5910    -2.0430    -0.2200 hn         1 0VX       0.540000
     12 H2           4.0270    -0.8170     0.1410 h1         1 0VX       0.069200
     13 H3           3.1540    -0.4570    -1.3750 h1         1 0VX       0.069200
     14 H4           3.1940     1.7670    -0.3130 h1         1 0VX       0.083700
     15 H5           2.9480     1.0570     1.3110 h1         1 0VX       0.083700
     16 H6          -1.8900    -1.6010     0.4860 hn         1 0VX       0.463000
     17 H7          -3.0770    -1.0120    -0.4050 hn         1 0VX       0.463000
@<TRIPOS>BOND
     1     1     2 1   
     2     1     3 1   
     3     1     4 2   
     4     2     6 1   
     5     3     5 1   
     6     3    11 1   
     7     4     7 1   
     8     5     6 1   
     9     5    12 1   
    10     5    13 1   
    11     6    14 1   
    12     6    15 1   
    13     7     8 1   
    14     7     9 2   
    15     7    10 2   
    16     8    16 1   
    17     8    17 1   
@<TRIPOS>SUBSTRUCTURE
     1 0VX         1 TEMP              0 ****  ****    0 ROOT
