@<TRIPOS>MOLECULE
0VY
   24    24     1     0     0
SMALL
No Charge or Current Charge


@<TRIPOS>ATOM
      1 C2          -0.3020    -0.5970    -0.2530 c2         1 0VY       0.992100
      2 C7          -3.7930    -0.1860     0.2570 c5         1 0VY      -0.096400
      3 C8          -2.4860    -0.9430     0.5860 c5         1 0VY       0.226800
      4 N1          -1.6120    -0.4190    -0.4850 nh         1 0VY      -0.758600
      5 N3           0.3870     0.0710     0.5670 ne         1 0VY      -0.962300
      6 N4           0.1390    -1.5730    -1.0060 nv         1 0VY      -1.098200
      7 C5          -2.0110     0.9440    -0.9250 c5         1 0VY       0.226800
      8 C6          -3.2360     1.2370    -0.0140 c5         1 0VY      -0.096400
      9 S9           1.9660    -0.1340     0.7680 sy         1 0VY       1.317700
     10 N10          2.1940     1.4130     1.0310 n8         1 0VY      -0.973100
     11 O11          2.2670    -0.8460     2.0050 o          1 0VY      -0.601000
     12 O12          2.6240    -0.4030    -0.5050 o          1 0VY      -0.601000
     13 H1          -4.2870    -0.6040    -0.6280 hc         1 0VY       0.059200
     14 H2          -2.1170    -0.6710     1.5860 h1         1 0VY       0.059700
     15 H4           1.0620    -1.3390    -1.3450 hn         1 0VY       0.515000
     16 H5          -1.2260     1.7010    -0.7890 h1         1 0VY       0.059700
     17 H6          -3.9650     1.8980    -0.4950 hc         1 0VY       0.059200
     18 H7           2.5600     1.6610     0.1200 hn         1 0VY       0.458000
     19 H8           1.2020     1.6280     0.9590 hn         1 0VY       0.458000
     20 H9          -4.5110    -0.2120     1.0840 hc         1 0VY       0.059200
     21 H10         -2.6040    -2.0340     0.5430 h1         1 0VY       0.059700
     22 H3          -0.5470    -1.7150    -1.7290 hn         1 0VY       0.515000
     23 H11         -2.2920     0.9380    -1.9870 h1         1 0VY       0.059700
     24 H12         -2.9210     1.7210     0.9190 hc         1 0VY       0.059200
@<TRIPOS>BOND
     1     1     4 1   
     2     1     5 2   
     3     1     6 1   
     4     2     3 1   
     5     2     8 1   
     6     2    13 1   
     7     2    20 1   
     8     3     4 1   
     9     3    14 1   
    10     3    21 1   
    11     4     7 1   
    12     5     9 1   
    13     6    15 1   
    14     6    22 1   
    15     7     8 1   
    16     7    16 1   
    17     7    23 1   
    18     8    17 1   
    19     8    24 1   
    20     9    10 1   
    21     9    11 2   
    22     9    12 2   
    23    10    18 1   
    24    10    19 1   
@<TRIPOS>SUBSTRUCTURE
     1 0VY         1 TEMP              0 ****  ****    0 ROOT
