@<TRIPOS>MOLECULE
0VY
   24    24     1     0     0
SMALL
abcg2


@<TRIPOS>ATOM
      1 C2          -0.3520    -0.4940     0.0620 c2         1 0VY       0.992100
      2 C7          -3.9530    -0.1540    -0.3220 c5         1 0VY      -0.096400
      3 C8          -2.7440    -1.0680    -0.1640 c5         1 0VY       0.226800
      4 N1          -1.6360    -0.1340     0.0080 nh         1 0VY      -0.758600
      5 N3           0.5300     0.4890     0.1840 ne         1 0VY      -0.962300
      6 N4          -0.0610    -1.8020     0.0130 nv         1 0VY      -1.098200
      7 C5          -2.0850     1.2410     0.2050 c5         1 0VY       0.226800
      8 C6          -3.5730     1.0770     0.4920 c5         1 0VY      -0.096400
      9 S9           2.0970     0.2740     0.4010 sy         1 0VY       1.317700
     10 N10          2.6630     1.5490    -0.4960 n8         1 0VY      -0.973100
     11 O11          2.5000     0.5700     1.7710 o          1 0VY      -0.601000
     12 O12          2.5900    -1.0120    -0.1220 o          1 0VY      -0.601000
     13 H1          -4.0860     0.1120    -1.3730 hc         1 0VY       0.059200
     14 H2          -2.8440    -1.7140     0.7140 h1         1 0VY       0.059700
     15 H4           0.8970    -2.0760    -0.1330 hn         1 0VY       0.515000
     16 H5          -1.5430     1.7130     1.0240 h1         1 0VY       0.059700
     17 H6          -4.1430     1.9640     0.2180 hc         1 0VY       0.059200
     18 H7           3.6660     1.6510    -0.3760 hn         1 0VY       0.458000
     19 H8           2.4500     1.4450    -1.4830 hn         1 0VY       0.458000
     20 H9          -4.8700    -0.6320     0.0180 hc         1 0VY       0.059200
     21 H10         -2.5980    -1.7070    -1.0370 h1         1 0VY       0.059700
     22 H3          -0.7680    -2.4840    -0.2010 hn         1 0VY       0.515000
     23 H11         -1.9140     1.8360    -0.6960 h1         1 0VY       0.059700
     24 H12         -3.7310     0.8910     1.5570 hc         1 0VY       0.059200
@<TRIPOS>BOND
     1     1     4 1   
     2     1     5 2   
     3     1     6 1   
     4     2     3 1   
     5     2     8 1   
     6     2    13 1   
     7     2    20 1   
     8     3     4 1   
     9     3    14 1   
    10     3    21 1   
    11     4     7 1   
    12     5     9 1   
    13     6    15 1   
    14     6    22 1   
    15     7     8 1   
    16     7    16 1   
    17     7    23 1   
    18     8    17 1   
    19     8    24 1   
    20     9    10 1   
    21     9    11 2   
    22     9    12 2   
    23    10    18 1   
    24    10    19 1   
@<TRIPOS>SUBSTRUCTURE
     1 0VY         1 TEMP              0 ****  ****    0 ROOT
