@<TRIPOS>MOLECULE
0VZ
   26    26     1     0     0
SMALL
abcg2


@<TRIPOS>ATOM
      1 C2          -0.8650    -0.2270     0.0180 c2         1 0VZ       0.804100
      2 C11          2.7050    -0.7910     0.1950 c          1 0VZ       0.593100
      3 C14          5.0540    -0.5310     0.3540 c3         1 0VZ       0.169600
      4 C15          6.1010     0.3980    -0.2070 c3         1 0VZ      -0.099100
      5 S1          -0.5640     1.5140    -0.0190 ss         1 0VZ      -0.212200
      6 N3          -1.9890    -0.8550     0.0910 ne         1 0VZ      -0.895300
      7 N4           0.2840    -0.9060    -0.0540 nu         1 0VZ      -0.875400
      8 C5           1.4660    -0.1670    -0.4150 c5         1 0VZ       0.163500
      9 C6           1.2300     1.2470     0.1120 c5         1 0VZ       0.002600
     10 S7          -3.4230    -0.0940     0.2320 sy         1 0VZ       1.319700
     11 N8          -4.3310    -0.6310    -1.0250 n8         1 0VZ      -0.992100
     12 O9          -4.0630    -0.5900     1.4360 o          1 0VZ      -0.549000
     13 O10         -3.2810     1.3460     0.0540 o          1 0VZ      -0.549000
     14 O12          2.7010    -1.7780     0.8810 o          1 0VZ      -0.457000
     15 O13          3.7720    -0.0960    -0.1380 os         1 0VZ      -0.448100
     16 H1           5.2320    -1.5600     0.0390 h1         1 0VZ       0.054200
     17 H2           5.0480    -0.5050     1.4460 h1         1 0VZ       0.054200
     18 H3           7.0800     0.0920     0.1600 hc         1 0VZ       0.051033
     19 H4           6.1260     0.3630    -1.2960 hc         1 0VZ       0.051033
     20 H5           5.9340     1.4290     0.1070 hc         1 0VZ       0.051033
     21 H6           0.2420    -1.9070    -0.1810 hn         1 0VZ       0.534000
     22 H7           1.5900    -0.1410    -1.5050 h1         1 0VZ       0.087700
     23 H8           1.7500     1.9940    -0.4800 h1         1 0VZ       0.098700
     24 H9           1.5220     1.3490     1.1570 h1         1 0VZ       0.098700
     25 H10         -4.5020    -1.6300    -0.9940 hn         1 0VZ       0.471500
     26 H11         -3.9580    -0.3590    -1.9290 hn         1 0VZ       0.471500
@<TRIPOS>BOND
     1     1     5 1   
     2     1     6 2   
     3     1     7 1   
     4     2     8 1   
     5     2    14 2   
     6     2    15 1   
     7     3     4 1   
     8     3    15 1   
     9     3    16 1   
    10     3    17 1   
    11     4    18 1   
    12     4    19 1   
    13     4    20 1   
    14     5     9 1   
    15     6    10 1   
    16     7     8 1   
    17     7    21 1   
    18     8     9 1   
    19     8    22 1   
    20     9    23 1   
    21     9    24 1   
    22    10    11 1   
    23    10    12 2   
    24    10    13 2   
    25    11    25 1   
    26    11    26 1   
@<TRIPOS>SUBSTRUCTURE
     1 0VZ         1 TEMP              0 ****  ****    0 ROOT
