@<TRIPOS>MOLECULE
0VZ
   26    26     1     0     0
SMALL
No Charge or Current Charge


@<TRIPOS>ATOM
      1 C2          -0.9350    -0.1870     0.0860 c2         1 0VZ       0.804100
      2 C11          2.7350    -0.9370     0.0980 c          1 0VZ       0.593100
      3 C14          5.1160    -0.5450     0.0890 c3         1 0VZ       0.169600
      4 C15          6.0690     0.6210    -0.2150 c3         1 0VZ      -0.099100
      5 S1          -0.5600     1.5020     0.5000 ss         1 0VZ      -0.212200
      6 N3          -2.0330    -0.6480    -0.3630 ne         1 0VZ      -0.895300
      7 N4           0.1170    -1.0380     0.0530 nu         1 0VZ      -0.875400
      8 C5           1.3670    -0.2270    -0.2040 c5         1 0VZ       0.163500
      9 C6           1.1810     0.9620     0.7890 c5         1 0VZ       0.002600
     10 S7          -3.3660     0.2540    -0.3580 sy         1 0VZ       1.319700
     11 N8          -4.3060    -1.0240    -0.4770 n8         1 0VZ      -0.992100
     12 O9          -3.6220     0.8540     0.9470 o          1 0VZ      -0.549000
     13 O10         -3.4970     0.9710    -1.6190 o          1 0VZ      -0.549000
     14 O12          2.8880    -2.1070     0.4340 o          1 0VZ      -0.457000
     15 O13          3.7760    -0.0670    -0.1210 os         1 0VZ      -0.448100
     16 H1           5.3430    -1.3870    -0.5780 h1         1 0VZ       0.054200
     17 H2           5.2580    -0.8730     1.1280 h1         1 0VZ       0.054200
     18 H3           7.1100     0.3090    -0.0690 hc         1 0VZ       0.051033
     19 H4           5.9530     0.9540    -1.2530 hc         1 0VZ       0.051033
     20 H5           5.8680     1.4690     0.4500 hc         1 0VZ       0.051033
     21 H6          -0.1020    -1.8510    -0.5150 hn         1 0VZ       0.534000
     22 H7           1.4160     0.1440    -1.2380 h1         1 0VZ       0.087700
     23 H8           1.8830     1.7850     0.6070 h1         1 0VZ       0.098700
     24 H9           1.2920     0.6290     1.8300 h1         1 0VZ       0.098700
     25 H10         -3.5240    -1.6750    -0.5100 hn         1 0VZ       0.471500
     26 H11         -4.5650    -0.9230    -1.4520 hn         1 0VZ       0.471500
@<TRIPOS>BOND
     1     1     5 1   
     2     1     6 2   
     3     1     7 1   
     4     2     8 1   
     5     2    14 2   
     6     2    15 1   
     7     3     4 1   
     8     3    15 1   
     9     3    16 1   
    10     3    17 1   
    11     4    18 1   
    12     4    19 1   
    13     4    20 1   
    14     5     9 1   
    15     6    10 1   
    16     7     8 1   
    17     7    21 1   
    18     8     9 1   
    19     8    22 1   
    20     9    23 1   
    21     9    24 1   
    22    10    11 1   
    23    10    12 2   
    24    10    13 2   
    25    11    25 1   
    26    11    26 1   
@<TRIPOS>SUBSTRUCTURE
     1 0VZ         1 TEMP              0 ****  ****    0 ROOT
