@<TRIPOS>MOLECULE
0W0
   67    69     1     0     0
SMALL
No Charge or Current Charge


@<TRIPOS>ATOM
      1 C            1.3210     2.7000     1.4060 c          1 0W0       0.569900
      2 CA           1.3970     1.8290     0.1300 c3         1 0W0      -0.007300
      3 N            2.6620     1.0510     0.0950 ns         1 0W0      -0.443900
      4 O            1.8100     2.3880     2.4890 o          1 0W0      -0.509100
      5 C2          -6.0760     0.7700     0.2730 cc         1 0W0      -0.188000
      6 C21          5.8270    -1.7360    -0.6810 cc         1 0W0      -0.253000
      7 C1          -6.7150    -0.4790     0.0780 cc         1 0W0       0.272800
      8 C35          4.9390    -0.8430    -0.1030 cd         1 0W0       0.326700
      9 C3          -4.7600     0.5480     0.0280 cd         1 0W0       0.140500
     10 C19          3.9030    -2.7500     0.2900 cc         1 0W0       0.740300
     11 C11         -8.9810     0.3910     0.6130 cd         1 0W0      -0.365200
     12 C8         -10.1820    -2.1220     0.2090 cc         1 0W0      -0.031000
     13 C6          -8.1610    -0.6650     0.2480 cc         1 0W0       0.125200
     14 C9         -10.9500    -1.0390     0.5720 cd         1 0W0      -0.048100
     15 C10        -10.4050     0.3020     0.8020 c          1 0W0       0.546500
     16 C14         -3.6490     1.5430     0.0950 c          1 0W0       0.516600
     17 C24          3.9300     1.5910    -0.0430 c          1 0W0       0.545800
     18 C30          9.7480     0.5190     1.1400 c          1 0W0       0.732000
     19 C31          8.5620     2.7340     0.6510 c3         1 0W0      -0.084600
     20 C32          9.0110     1.0520    -1.2540 c3         1 0W0      -0.084600
     21 C23          0.1320     0.9330    -0.0090 c3         1 0W0       0.211500
     22 C29          8.6510     1.2290     0.2530 c3         1 0W0       0.034000
     23 N5          -5.8440    -1.4250    -0.2690 nd         1 0W0      -0.351300
     24 N18          3.8180    -1.4620     0.4510 nd         1 0W0      -0.710000
     25 N27          6.2870     1.1960    -0.2590 n2         1 0W0      -0.292700
     26 N7          -8.7860    -1.9440     0.0440 na         1 0W0      -0.257700
     27 N36          2.8720    -3.4890     0.6760 nv         1 0W0      -1.038900
     28 N22          0.3400    -0.0060    -1.1400 n7         1 0W0      -0.898300
     29 O34         10.9090     0.9040     1.0580 o          1 0W0      -0.714000
     30 O41         -1.5860    -1.4470    -1.0240 o          1 0W0      -0.707867
     31 O12        -11.0950     1.2630     1.1260 o          1 0W0      -0.617100
     32 O16         -3.8040     2.7220     0.3920 o          1 0W0      -0.625100
     33 O25          4.0520     2.8140    -0.1150 o          1 0W0      -0.594100
     34 O33          9.4180    -0.3970     1.8860 o          1 0W0      -0.714000
     35 O39          0.4600    -2.1380    -2.2440 o          1 0W0      -0.707867
     36 O40          0.4860    -2.0130     0.2240 o          1 0W0      -0.707867
     37 O4          -4.5650    -0.7620    -0.3040 os         1 0W0       0.014300
     38 O13        -12.2980    -1.1370     0.7480 oh         1 0W0      -0.532100
     39 O17         -8.0410    -3.0740    -0.3270 oh         1 0W0      -0.359300
     40 O28          7.3450     0.6100     0.4880 os         1 0W0      -0.242000
     41 S20          5.2920    -3.3870    -0.5210 ss         1 0W0      -0.216400
     42 S38         -0.1310    -1.5790    -1.0300 s6         1 0W0       1.376700
     43 H1           0.7850     3.6670     1.2850 h4         1 0W0      -0.030800
     44 H2           1.4130     2.5250    -0.7190 h1         1 0W0       0.096700
     45 H3           2.6010     0.0340     0.1360 hn         1 0W0       0.340500
     46 H4          -6.5220     1.7140     0.5570 ha         1 0W0       0.170000
     47 H5           6.7590    -1.5170    -1.1860 h4         1 0W0       0.160000
     48 H6          -8.6130     1.3900     0.7900 ha         1 0W0       0.223000
     49 H7         -10.5820    -3.1160     0.0380 h4         1 0W0       0.225000
     50 H8           9.5440     3.2150     0.5680 hc         1 0W0       0.025200
     51 H9           7.8740     3.2900     0.0030 hc         1 0W0       0.025200
     52 H10          8.2220     2.8390     1.6890 hc         1 0W0       0.025200
     53 H11          8.9930    -0.0090    -1.5320 hc         1 0W0       0.025200
     54 H12          8.3170     1.5930    -1.9080 hc         1 0W0       0.025200
     55 H13         10.0160     1.4380    -1.4600 hc         1 0W0       0.025200
     56 H14         -1.2170     2.5330     0.6080 h1         1 0W0       0.053200
     57 H15         -1.0830     2.3540    -1.1490 h1         1 0W0       0.053200
     58 H16          0.0300     0.3800     0.9370 h1         1 0W0       0.071700
     59 H17          2.0050    -2.9460     0.6700 hn         1 0W0       0.490000
     60 H18          2.8000    -4.3940     0.2340 hn         1 0W0       0.490000
     61 H19         -2.3550     0.0350    -0.4550 hn         1 0W0       0.400500
     62 H20         -0.2550     0.2550    -1.9160 hn         1 0W0       0.471000
     63 H22        -12.6110    -0.2350     1.0030 ho         1 0W0       0.489000
     64 H23         -7.1000    -2.7820    -0.3980 ho         1 0W0       0.475000
     65 C37         -1.1540     1.7980    -0.2040 c3         1 0W0       0.058000
     66 C26          5.1150     0.6350    -0.1010 cf         1 0W0       0.242300
     67 N15         -2.4050     1.0280    -0.2090 ns         1 0W0      -0.481900
@<TRIPOS>BOND
     1     1     2 1   
     2     1     4 2   
     3     1    43 1   
     4     2     3 1   
     5     2    21 1   
     6     2    44 1   
     7     3    17 1   
     8     3    45 1   
     9     5     7 1   
    10     5     9 2   
    11     5    46 1   
    12     6     8 2   
    13     6    41 1   
    14     6    47 1   
    15     7    13 1   
    16     7    23 2   
    17     8    24 1   
    18     8    66 1   
    19     9    16 1   
    20     9    37 1   
    21    10    24 2   
    22    10    27 1   
    23    10    41 1   
    24    11    13 2   
    25    11    15 1   
    26    11    48 1   
    27    12    14 2   
    28    12    26 1   
    29    12    49 1   
    30    13    26 1   
    31    14    15 1   
    32    14    38 1   
    33    15    31 2   
    34    16    32 2   
    35    16    67 1   
    36    17    33 2   
    37    17    66 1   
    38    18    22 1   
    39    18    29 1   
    40    18    34 1   
    41    19    22 1   
    42    19    50 1   
    43    19    51 1   
    44    19    52 1   
    45    20    22 1   
    46    20    53 1   
    47    20    54 1   
    48    20    55 1   
    49    21    28 1   
    50    21    58 1   
    51    21    65 1   
    52    22    40 1   
    53    23    37 1   
    54    25    40 1   
    55    25    66 2   
    56    26    39 1   
    57    27    59 1   
    58    27    60 1   
    59    28    42 1   
    60    28    62 1   
    61    30    42 1   
    62    35    42 1   
    63    36    42 1   
    64    38    63 1   
    65    39    64 1   
    66    56    65 1   
    67    57    65 1   
    68    61    67 1   
    69    65    67 1   
@<TRIPOS>SUBSTRUCTURE
     1 0W0         1 TEMP              0 ****  ****    0 ROOT
