@<TRIPOS>MOLECULE
0W0
   67    69     1     0     0
SMALL
abcg2


@<TRIPOS>ATOM
      1 C            1.8850     1.0100     2.8820 c          1 0W0       0.569900
      2 CA           1.8660     0.9440     1.3750 c3         1 0W0      -0.007300
      3 N            3.0770     0.3650     0.8860 ns         1 0W0      -0.443900
      4 O            2.8010     0.6360     3.5650 o          1 0W0      -0.509100
      5 C2          -5.5300     1.0990     0.7400 cc         1 0W0      -0.188000
      6 C21          5.4960    -1.9990    -2.0810 cc         1 0W0      -0.253000
      7 C1          -6.3000     0.0190     0.2470 cc         1 0W0       0.272800
      8 C35          4.7400    -1.4080    -1.1210 cd         1 0W0       0.326700
      9 C3          -4.2610     0.6430     0.6320 cd         1 0W0       0.140500
     10 C19          3.7510    -3.3690    -1.0640 cc         1 0W0       0.740300
     11 C11         -8.5450     0.4420     1.1730 cd         1 0W0      -0.365200
     12 C8          -9.6930    -0.7060    -1.0470 cc         1 0W0      -0.031000
     13 C6          -7.7620    -0.0490     0.1640 cc         1 0W0       0.125200
     14 C9         -10.5080    -0.2360    -0.0700 cd         1 0W0      -0.048100
     15 C10         -9.9700     0.3860     1.1260 c          1 0W0       0.546500
     16 C14         -2.9810     1.3250     0.9530 c          1 0W0       0.516600
     17 C24          3.6230     0.7330    -0.2820 c          1 0W0       0.545800
     18 C30          7.1950     3.7860     0.3420 c          1 0W0       0.732000
     19 C31          8.0590     2.2890    -1.4850 c3         1 0W0      -0.084600
     20 C32          8.1540     1.5200     0.9060 c3         1 0W0      -0.084600
     21 C23          0.5540     0.2170     0.9110 c3         1 0W0       0.211500
     22 C29          7.3650     2.3150    -0.1280 c3         1 0W0       0.034000
     23 N5          -5.5400    -0.9810    -0.1070 nd         1 0W0      -0.351300
     24 N18          3.7680    -2.1800    -0.5500 nd         1 0W0      -0.710000
     25 N27          6.0330     0.5020    -0.6490 n2         1 0W0      -0.292700
     26 N7          -8.3420    -0.6170    -0.9130 na         1 0W0      -0.257700
     27 N36          2.9240    -4.3560    -0.6570 nv         1 0W0      -1.038900
     28 N22          0.7560    -0.4250    -0.3620 n7         1 0W0      -0.898300
     29 O34          8.2650     4.3940     0.5350 o          1 0W0      -0.714000
     30 O41         -1.3960    -1.7960    -0.5800 o          1 0W0      -0.707867
     31 O12        -10.7440     0.8090     1.9980 o          1 0W0      -0.617100
     32 O16         -3.0310     2.4470     1.4390 o          1 0W0      -0.625100
     33 O25          3.1940     1.6180    -1.0000 o          1 0W0      -0.594100
     34 O33          6.0440     4.2280     0.4740 o          1 0W0      -0.714000
     35 O39          0.5380    -2.2580    -2.0150 o          1 0W0      -0.707867
     36 O40          0.5880    -2.8070     0.4060 o          1 0W0      -0.707867
     37 O4          -4.2730    -0.5940     0.1300 os         1 0W0       0.014300
     38 O13        -11.8380    -0.3270    -0.1790 oh         1 0W0      -0.532100
     39 O17         -7.5980    -0.9550    -1.9960 oh         1 0W0      -0.359300
     40 O28          6.0310     1.7860    -0.2410 os         1 0W0      -0.242000
     41 S20          4.9630    -3.6270    -2.2980 ss         1 0W0      -0.216400
     42 S38          0.0810    -1.9330    -0.6660 s6         1 0W0       1.376700
     43 H1           0.9700     1.4280     3.3360 h4         1 0W0      -0.030800
     44 H2           1.8100     1.9780     1.0160 h1         1 0W0       0.096700
     45 H3           3.3760    -0.5110     1.2880 hn         1 0W0       0.340500
     46 H4          -5.8720     2.0570     1.0920 ha         1 0W0       0.170000
     47 H5           6.2920    -1.5780    -2.6720 h4         1 0W0       0.160000
     48 H6          -8.0650     0.8690     2.0430 ha         1 0W0       0.223000
     49 H7         -10.0550    -1.1630    -1.9570 h4         1 0W0       0.225000
     50 H8           9.0470     2.7380    -1.4010 hc         1 0W0       0.025200
     51 H9           8.1830     1.2690    -1.8510 hc         1 0W0       0.025200
     52 H10          7.4960     2.8530    -2.2320 hc         1 0W0       0.025200
     53 H11          7.6270     1.4800     1.8620 hc         1 0W0       0.025200
     54 H12          8.3330     0.4970     0.5720 hc         1 0W0       0.025200
     55 H13          9.1200     1.9920     1.0770 hc         1 0W0       0.025200
     56 H14         -0.5840     1.7970     1.8500 h1         1 0W0       0.053200
     57 H15         -0.3500     2.0000     0.1250 h1         1 0W0       0.053200
     58 H16          0.3180    -0.5610     1.6420 h1         1 0W0       0.071700
     59 H17          2.0690    -4.0110    -0.2270 hn         1 0W0       0.490000
     60 H18          2.7870    -5.1370    -1.2770 hn         1 0W0       0.490000
     61 H19         -1.8830    -0.2540     0.2050 hn         1 0W0       0.400500
     62 H20          0.7020     0.1900    -1.1650 hn         1 0W0       0.471000
     63 H22        -12.2130     0.0640     0.6260 ho         1 0W0       0.489000
     64 H23         -7.2740    -1.8560    -1.8450 ho         1 0W0       0.475000
     65 C37         -0.5680     1.2570     0.9020 c3         1 0W0       0.058000
     66 C26          4.8760    -0.0260    -0.6580 cf         1 0W0       0.242300
     67 N15         -1.8620     0.6550     0.6790 ns         1 0W0      -0.481900
@<TRIPOS>BOND
     1     1     2 1   
     2     1     4 2   
     3     1    43 1   
     4     2     3 1   
     5     2    21 1   
     6     2    44 1   
     7     3    17 1   
     8     3    45 1   
     9     5     7 1   
    10     5     9 2   
    11     5    46 1   
    12     6     8 2   
    13     6    41 1   
    14     6    47 1   
    15     7    13 1   
    16     7    23 2   
    17     8    24 1   
    18     8    66 1   
    19     9    16 1   
    20     9    37 1   
    21    10    24 2   
    22    10    27 1   
    23    10    41 1   
    24    11    13 2   
    25    11    15 1   
    26    11    48 1   
    27    12    14 2   
    28    12    26 1   
    29    12    49 1   
    30    13    26 1   
    31    14    15 1   
    32    14    38 1   
    33    15    31 2   
    34    16    32 2   
    35    16    67 1   
    36    17    33 2   
    37    17    66 1   
    38    18    22 1   
    39    18    29 1   
    40    18    34 1   
    41    19    22 1   
    42    19    50 1   
    43    19    51 1   
    44    19    52 1   
    45    20    22 1   
    46    20    53 1   
    47    20    54 1   
    48    20    55 1   
    49    21    28 1   
    50    21    58 1   
    51    21    65 1   
    52    22    40 1   
    53    23    37 1   
    54    25    40 1   
    55    25    66 2   
    56    26    39 1   
    57    27    59 1   
    58    27    60 1   
    59    28    42 1   
    60    28    62 1   
    61    30    42 1   
    62    35    42 1   
    63    36    42 1   
    64    38    63 1   
    65    39    64 1   
    66    56    65 1   
    67    57    65 1   
    68    61    67 1   
    69    65    67 1   
@<TRIPOS>SUBSTRUCTURE
     1 0W0         1 TEMP              0 ****  ****    0 ROOT
