@<TRIPOS>MOLECULE
0W1
   20    21     1     0     0
SMALL
bcc


@<TRIPOS>ATOM
      1 OAC         -3.6030    -1.1710    -0.0780 o          1 0W1      -0.816300
      2 CAH         -2.9970    -0.0860    -0.0730 c          1 0W1       0.943200
      3 OAD         -3.4740     1.0670    -0.0830 o          1 0W1      -0.816300
      4 CAJ         -1.4980    -0.1480    -0.0510 cc         1 0W1      -0.050700
      5 CAE         -0.6630    -1.2180    -0.0320 cd         1 0W1      -0.118000
      6 SAG         -0.6530     1.3960    -0.0450 ss         1 0W1      -0.114800
      7 CAL          0.8460     0.5560    -0.0210 cc         1 0W1      -0.043400
      8 CAK          0.7080    -0.8240    -0.0110 cd         1 0W1      -0.237300
      9 CAI          2.0400    -1.3030     0.0110 cd         1 0W1       0.349600
     10 CAA          2.5150    -2.7130     0.0220 c3         1 0W1      -0.109400
     11 NAF          2.8820    -0.2870     0.0120 nc         1 0W1      -0.553800
     12 NAM          2.1530     0.8440    -0.0180 na         1 0W1       0.107400
     13 CAB          2.7860     2.1350     0.0650 c3         1 0W1       0.062600
     14 H2          -1.0200    -2.2380    -0.0310 ha         1 0W1       0.159000
     15 H3           2.1590    -3.2550    -0.8560 hc         1 0W1       0.036700
     16 H4           3.6020    -2.7590     0.0310 hc         1 0W1       0.036700
     17 H5           2.1450    -3.2460     0.8990 hc         1 0W1       0.036700
     18 H6           2.9310     2.4420     1.1010 h1         1 0W1       0.042367
     19 H7           3.7510     2.0910    -0.4330 h1         1 0W1       0.042367
     20 H8           2.1690     2.8760    -0.4400 h1         1 0W1       0.042367
@<TRIPOS>BOND
     1     1     2 1   
     2     2     3 1   
     3     2     4 1   
     4     4     5 2   
     5     4     6 1   
     6     5     8 1   
     7     5    14 1   
     8     6     7 1   
     9     7     8 2   
    10     7    12 1   
    11     8     9 1   
    12     9    10 1   
    13     9    11 2   
    14    10    15 1   
    15    10    16 1   
    16    10    17 1   
    17    11    12 1   
    18    12    13 1   
    19    13    18 1   
    20    13    19 1   
    21    13    20 1   
@<TRIPOS>SUBSTRUCTURE
     1 0W1         1 TEMP              0 ****  ****    0 ROOT
