@<TRIPOS>MOLECULE
0W1
   20    21     1     0     0
SMALL
No Charge or Current Charge


@<TRIPOS>ATOM
      1 OAC         -3.4730    -1.2910    -0.1950 o          1 0W1      -0.711000
      2 CAH         -2.9590    -0.1810    -0.1590 c          1 0W1       0.732600
      3 OAD         -3.6170     0.8490    -0.1660 o          1 0W1      -0.711000
      4 CAJ         -1.4820    -0.0810    -0.1060 cc         1 0W1      -0.195600
      5 CAE         -0.6140    -1.1770    -0.0880 cd         1 0W1      -0.100000
      6 SAG         -0.6200     1.4920    -0.0440 ss         1 0W1       0.175000
      7 CAL          0.8570     0.5760    -0.0440 cc         1 0W1      -0.239000
      8 CAK          0.7290    -0.7310    -0.0410 cd         1 0W1      -0.172000
      9 CAI          2.0230    -1.2860     0.0210 cd         1 0W1       0.284300
     10 CAA          2.4000    -2.7420     0.0460 c3         1 0W1      -0.109400
     11 NAF          2.9480    -0.3170     0.0820 nc         1 0W1      -0.553800
     12 NAM          2.1990     0.8680     0.0530 na         1 0W1       0.128800
     13 CAB          2.8360     2.1920     0.1250 c3         1 0W1       0.091900
     14 H2          -0.9230    -2.2180    -0.1020 ha         1 0W1       0.141000
     15 H3           1.5380    -3.3750    -0.1950 hc         1 0W1       0.036700
     16 H4           3.1880    -2.9580    -0.6840 hc         1 0W1       0.036700
     17 H5           2.7650    -3.0340     1.0370 hc         1 0W1       0.036700
     18 H6           2.9540     2.4830     1.1760 h1         1 0W1       0.042367
     19 H7           3.8210     2.1580    -0.3570 h1         1 0W1       0.042367
     20 H8           2.2090     2.9310    -0.3880 h1         1 0W1       0.042367
@<TRIPOS>BOND
     1     1     2 1   
     2     2     3 1   
     3     2     4 1   
     4     4     5 2   
     5     4     6 1   
     6     5     8 1   
     7     5    14 1   
     8     6     7 1   
     9     7     8 2   
    10     7    12 1   
    11     8     9 1   
    12     9    10 1   
    13     9    11 2   
    14    10    15 1   
    15    10    16 1   
    16    10    17 1   
    17    11    12 1   
    18    12    13 1   
    19    13    18 1   
    20    13    19 1   
    21    13    20 1   
@<TRIPOS>SUBSTRUCTURE
     1 0W1         1 TEMP              0 ****  ****    0 ROOT
