@<TRIPOS>MOLECULE
0W2
   71    76     1     0     0
SMALL
No Charge or Current Charge


@<TRIPOS>ATOM
      1 C5          -0.7360     0.1850     1.2530 c3         1 0W2       0.060700
      2 C6          -3.1500     0.7910     0.8230 c          1 0W2       0.658100
      3 N1           2.9590    -0.5560     0.1400 nh         1 0W2      -0.538400
      4 C2           3.1500     1.6540     1.0890 c5         1 0W2      -0.106400
      5 N3          -1.9990     0.1410     0.4810 ns         1 0W2      -0.527900
      6 C4           0.4850    -0.1930     0.3470 c          1 0W2       0.604100
      7 C11          3.3470    -1.9360     0.1120 ca         1 0W2       0.197000
      8 C12          2.7660    -2.9740     0.9040 ca         1 0W2       0.155000
      9 C13          3.2220    -4.3000     0.7960 ca         1 0W2      -0.154000
     10 C14          4.2550    -4.6280    -0.0940 ca         1 0W2      -0.081000
     11 C15          4.8370    -3.6230    -0.8800 ca         1 0W2      -0.127000
     12 C16          4.3860    -2.2950    -0.7750 ca         1 0W2      -0.044000
     13 C31         -5.5270     1.0980     0.0530 c6         1 0W2       0.135700
     14 N4          -4.1640     0.5630    -0.0620 ns         1 0W2      -0.520900
     15 O1          -3.2570     1.5040     1.8060 o          1 0W2      -0.660100
     16 C66         -0.8370    -0.7080     2.5140 c3         1 0W2      -0.110100
     17 O2           0.3090    -0.5820    -0.8080 o          1 0W2      -0.585100
     18 N2           1.8000    -0.1660     0.9170 n          1 0W2      -0.263200
     19 F1           1.7780    -2.7360     1.8000 f          1 0W2      -0.182000
     20 C1           3.9390     0.5620     0.2950 c5         1 0W2       0.235800
     21 C21          4.3870     1.2170    -1.0180 ca         1 0W2      -0.073300
     22 C26          3.5280     1.2330    -2.1420 ca         1 0W2      -0.080000
     23 C25          3.9320     1.8300    -3.3490 ca         1 0W2      -0.113000
     24 C24          5.1980     2.4240    -3.4510 ca         1 0W2      -0.099000
     25 C23          6.0590     2.4220    -2.3430 ca         1 0W2      -0.107000
     26 C22          5.6590     1.8250    -1.1340 ca         1 0W2       0.125000
     27 Cl1          6.7840     1.8690     0.2250 cl         1 0W2      -0.215000
     28 C3           2.1880     0.8050     1.9520 c5         1 0W2       0.086000
     29 C36         -6.3950     0.2620     1.0490 c6         1 0W2      -0.075700
     30 C37         -6.6010    -1.1900     0.5140 c6         1 0W2      -0.067900
     31 C38         -7.3210    -1.1440    -0.8640 c6         1 0W2      -0.061700
     32 C40         -6.4560    -0.3320    -1.8710 c6         1 0W2      -0.067900
     33 C32         -6.2470     1.1190    -1.3340 c6         1 0W2      -0.075700
     34 C33         -7.6370     1.8050    -1.1750 c6         1 0W2      -0.067900
     35 C34         -8.5080     0.9990    -0.1670 c6         1 0W2      -0.061700
     36 C39         -8.7050    -0.4510    -0.7000 c6         1 0W2      -0.067400
     37 C35         -7.7850     0.9460     1.2110 c6         1 0W2      -0.067900
     38 H1          -0.5840     1.2240     1.5710 h1         1 0W2       0.087700
     39 H2           2.5820     2.3100     0.4190 hc         1 0W2       0.070200
     40 H3          -2.0070    -0.3980    -0.3770 hn         1 0W2       0.330500
     41 H4           2.7710    -5.0760     1.4090 ha         1 0W2       0.130000
     42 H5           4.6040    -5.6560    -0.1750 ha         1 0W2       0.118000
     43 H6           5.6370    -3.8710    -1.5730 ha         1 0W2       0.121000
     44 H7           4.8450    -1.5360    -1.4010 ha         1 0W2       0.134000
     45 H8          -5.4510     2.1310     0.4260 h1         1 0W2       0.077700
     46 H9          -3.9610    -0.0450    -0.8420 hn         1 0W2       0.308500
     47 H10          0.0720    -0.6450     3.1220 hc         1 0W2       0.050033
     48 H11         -1.6810    -0.4020     3.1430 hc         1 0W2       0.050033
     49 H12         -0.9850    -1.7570     2.2300 hc         1 0W2       0.050033
     50 H13          4.7960     0.2080     0.8840 h1         1 0W2       0.068700
     51 H14          2.5410     0.7800    -2.0820 ha         1 0W2       0.145000
     52 H15          3.2600     1.8320    -4.2050 ha         1 0W2       0.120000
     53 H16          5.5110     2.8870    -4.3850 ha         1 0W2       0.118000
     54 H17          7.0400     2.8860    -2.4180 ha         1 0W2       0.129000
     55 H18          2.7070     0.3070     2.7820 h1         1 0W2       0.068200
     56 H19          1.3630     1.4020     2.3580 h1         1 0W2       0.068200
     57 H20         -5.8980     0.2240     2.0270 hc         1 0W2       0.061700
     58 H21         -5.6360    -1.7080     0.4230 hc         1 0W2       0.040825
     59 H22         -7.1950    -1.7740     1.2300 hc         1 0W2       0.040825
     60 H23         -7.4630    -2.1660    -1.2410 hc         1 0W2       0.049700
     61 H24         -5.4910    -0.8310    -2.0330 hc         1 0W2       0.040825
     62 H25         -6.9500    -0.3020    -2.8520 hc         1 0W2       0.040825
     63 H26         -5.6420     1.6920    -2.0500 hc         1 0W2       0.061700
     64 H27         -7.5120     2.8390    -0.8250 hc         1 0W2       0.040825
     65 H28         -8.1430     1.8670    -2.1480 hc         1 0W2       0.040825
     66 H29         -9.4860     1.4860    -0.0520 hc         1 0W2       0.049700
     67 H30         -9.2360    -0.4310    -1.6620 hc         1 0W2       0.039700
     68 H31         -9.3380    -1.0260    -0.0090 hc         1 0W2       0.039700
     69 H32         -8.3970     0.3950     1.9390 hc         1 0W2       0.040825
     70 H33         -7.6640     1.9610     1.6150 hc         1 0W2       0.040825
     71 H34          3.8070     2.2920     1.6890 hc         1 0W2       0.070200
@<TRIPOS>BOND
     1     1     5 1   
     2     1     6 1   
     3     1    16 1   
     4     1    38 1   
     5     2     5 1   
     6     2    14 1   
     7     2    15 2   
     8     3     7 1   
     9     3    18 1   
    10     3    20 1   
    11     4    20 1   
    12     4    28 1   
    13     4    39 1   
    14     4    71 1   
    15     5    40 1   
    16     6    17 2   
    17     6    18 1   
    18     7     8 ar  
    19     7    12 ar  
    20     8     9 ar  
    21     8    19 1   
    22     9    10 ar  
    23     9    41 1   
    24    10    11 ar  
    25    10    42 1   
    26    11    12 ar  
    27    11    43 1   
    28    12    44 1   
    29    13    14 1   
    30    13    29 1   
    31    13    33 1   
    32    13    45 1   
    33    14    46 1   
    34    16    47 1   
    35    16    48 1   
    36    16    49 1   
    37    18    28 1   
    38    20    21 1   
    39    20    50 1   
    40    21    22 ar  
    41    21    26 ar  
    42    22    23 ar  
    43    22    51 1   
    44    23    24 ar  
    45    23    52 1   
    46    24    25 ar  
    47    24    53 1   
    48    25    26 ar  
    49    25    54 1   
    50    26    27 1   
    51    28    55 1   
    52    28    56 1   
    53    29    30 1   
    54    29    37 1   
    55    29    57 1   
    56    30    31 1   
    57    30    58 1   
    58    30    59 1   
    59    31    32 1   
    60    31    36 1   
    61    31    60 1   
    62    32    33 1   
    63    32    61 1   
    64    32    62 1   
    65    33    34 1   
    66    33    63 1   
    67    34    35 1   
    68    34    64 1   
    69    34    65 1   
    70    35    36 1   
    71    35    37 1   
    72    35    66 1   
    73    36    67 1   
    74    36    68 1   
    75    37    69 1   
    76    37    70 1   
@<TRIPOS>SUBSTRUCTURE
     1 0W2         1 TEMP              0 ****  ****    0 ROOT
