@<TRIPOS>MOLECULE
0W2
   71    76     1     0     0
SMALL
abcg2


@<TRIPOS>ATOM
      1 C5          -0.7680    -0.2160     1.2750 c3         1 0W2       0.060700
      2 C6          -3.0600     0.4370     0.7230 c          1 0W2       0.658100
      3 N1           2.7700    -0.3900     0.0990 nh         1 0W2      -0.538400
      4 C2           2.9720     1.7210     1.1440 c5         1 0W2      -0.106400
      5 N3          -1.9450    -0.2910     0.4530 ns         1 0W2      -0.527900
      6 C4           0.4460    -0.4900     0.3890 c          1 0W2       0.604100
      7 C11          3.2590    -1.7200     0.1190 ca         1 0W2       0.197000
      8 C12          3.5940    -2.4050     1.2840 ca         1 0W2       0.155000
      9 C13          4.0830    -3.6950     1.2690 ca         1 0W2      -0.154000
     10 C14          4.2690    -4.3290     0.0480 ca         1 0W2      -0.081000
     11 C15          3.9560    -3.6700    -1.1330 ca         1 0W2      -0.127000
     12 C16          3.4430    -2.3810    -1.0890 ca         1 0W2      -0.044000
     13 C31         -5.3670     0.9090     0.0160 c6         1 0W2       0.135700
     14 N4          -4.0860     0.2560    -0.1460 ns         1 0W2      -0.520900
     15 O1          -3.1200     1.2170     1.6720 o          1 0W2      -0.660100
     16 C66         -0.7930    -1.2210     2.4300 c3         1 0W2      -0.110100
     17 O2           0.3350    -1.0900    -0.6670 o          1 0W2      -0.585100
     18 N2           1.6480    -0.1530     0.9050 n          1 0W2      -0.263200
     19 F1           3.4430    -1.7920     2.4670 f          1 0W2      -0.182000
     20 C1           3.7440     0.6820     0.3180 c5         1 0W2       0.235800
     21 C21          4.2650     1.2480    -0.9810 ca         1 0W2      -0.073300
     22 C26          3.5290     1.1380    -2.1580 ca         1 0W2      -0.080000
     23 C25          3.9780     1.6910    -3.3470 ca         1 0W2      -0.113000
     24 C24          5.1870     2.3720    -3.3830 ca         1 0W2      -0.099000
     25 C23          5.9370     2.5020    -2.2240 ca         1 0W2      -0.107000
     26 C22          5.4680     1.9450    -1.0440 ca         1 0W2       0.125000
     27 CL1          6.4300     2.1540     0.3910 cl         1 0W2      -0.215000
     28 C3           1.9520     0.8740     1.8880 c5         1 0W2       0.086000
     29 C36         -6.3170     0.1610     0.9650 c6         1 0W2      -0.075700
     30 C37         -6.7190    -1.1880     0.3640 c6         1 0W2      -0.067900
     31 C38         -7.4260    -0.9680    -0.9760 c6         1 0W2      -0.061700
     32 C40         -6.4780    -0.2480    -1.9370 c6         1 0W2      -0.067900
     33 C32         -6.0600     1.1000    -1.3390 c6         1 0W2      -0.075700
     34 C33         -7.3130     1.9550    -1.1240 c6         1 0W2      -0.067900
     35 C34         -8.2710     1.2450    -0.1660 c6         1 0W2      -0.061700
     36 C39         -8.6750    -0.1090    -0.7570 c6         1 0W2      -0.067400
     37 C35         -7.5690     1.0180     1.1750 c6         1 0W2      -0.067900
     38 H1          -0.7190     0.7920     1.6870 h1         1 0W2       0.087700
     39 H2           2.4640     2.4290     0.4860 hc         1 0W2       0.070200
     40 H3          -1.9300    -0.9430    -0.3150 hn         1 0W2       0.330500
     41 H4           4.3240    -4.1900     2.2010 ha         1 0W2       0.130000
     42 H5           4.6590    -5.3380     0.0250 ha         1 0W2       0.118000
     43 H6           4.0970    -4.1620    -2.0860 ha         1 0W2       0.121000
     44 H7           3.1740    -1.8680    -2.0030 ha         1 0W2       0.134000
     45 H8          -5.1690     1.8990     0.4380 h1         1 0W2       0.077700
     46 H9          -3.9900    -0.4430    -0.8650 hn         1 0W2       0.308500
     47 H10          0.0880    -1.1310     3.0660 hc         1 0W2       0.050033
     48 H11         -1.6720    -1.0490     3.0500 hc         1 0W2       0.050033
     49 H12         -0.8350    -2.2420     2.0500 hc         1 0W2       0.050033
     50 H13          4.5850     0.3050     0.9100 h1         1 0W2       0.068700
     51 H14          2.5910     0.5990    -2.1290 ha         1 0W2       0.145000
     52 H15          3.3850     1.5850    -4.2460 ha         1 0W2       0.120000
     53 H16          5.5490     2.8040    -4.3060 ha         1 0W2       0.118000
     54 H17          6.8780     3.0360    -2.2370 ha         1 0W2       0.129000
     55 H18          2.3730     0.4360     2.7930 h1         1 0W2       0.068200
     56 H19          1.0680     1.4400     2.1650 h1         1 0W2       0.068200
     57 H20         -5.8120     0.0080     1.9230 hc         1 0W2       0.061700
     58 H21         -5.8440    -1.8330     0.2370 hc         1 0W2       0.040825
     59 H22         -7.3860    -1.7110     1.0570 hc         1 0W2       0.040825
     60 H23         -7.7150    -1.9330    -1.4020 hc         1 0W2       0.049700
     61 H24         -5.6090    -0.8770    -2.1590 hc         1 0W2       0.040825
     62 H25         -6.9730    -0.0780    -2.8980 hc         1 0W2       0.040825
     63 H26         -5.3770     1.6170    -2.0190 hc         1 0W2       0.061700
     64 H27         -7.0340     2.9350    -0.7240 hc         1 0W2       0.040825
     65 H28         -7.8020     2.1380    -2.0850 hc         1 0W2       0.040825
     66 H29         -9.1620     1.8620    -0.0160 hc         1 0W2       0.049700
     67 H30         -9.2040     0.0340    -1.7050 hc         1 0W2       0.039700
     68 H31         -9.3660    -0.6200    -0.0800 hc         1 0W2       0.039700
     69 H32         -8.2470     0.5170     1.8740 hc         1 0W2       0.040825
     70 H33         -7.3000     1.9760     1.6310 hc         1 0W2       0.040825
     71 H34          3.6290     2.2770     1.8080 hc         1 0W2       0.070200
@<TRIPOS>BOND
     1     1     5 1   
     2     1     6 1   
     3     1    16 1   
     4     1    38 1   
     5     2     5 1   
     6     2    14 1   
     7     2    15 2   
     8     3     7 1   
     9     3    18 1   
    10     3    20 1   
    11     4    20 1   
    12     4    28 1   
    13     4    39 1   
    14     4    71 1   
    15     5    40 1   
    16     6    17 2   
    17     6    18 1   
    18     7     8 ar  
    19     7    12 ar  
    20     8     9 ar  
    21     8    19 1   
    22     9    10 ar  
    23     9    41 1   
    24    10    11 ar  
    25    10    42 1   
    26    11    12 ar  
    27    11    43 1   
    28    12    44 1   
    29    13    14 1   
    30    13    29 1   
    31    13    33 1   
    32    13    45 1   
    33    14    46 1   
    34    16    47 1   
    35    16    48 1   
    36    16    49 1   
    37    18    28 1   
    38    20    21 1   
    39    20    50 1   
    40    21    22 ar  
    41    21    26 ar  
    42    22    23 ar  
    43    22    51 1   
    44    23    24 ar  
    45    23    52 1   
    46    24    25 ar  
    47    24    53 1   
    48    25    26 ar  
    49    25    54 1   
    50    26    27 1   
    51    28    55 1   
    52    28    56 1   
    53    29    30 1   
    54    29    37 1   
    55    29    57 1   
    56    30    31 1   
    57    30    58 1   
    58    30    59 1   
    59    31    32 1   
    60    31    36 1   
    61    31    60 1   
    62    32    33 1   
    63    32    61 1   
    64    32    62 1   
    65    33    34 1   
    66    33    63 1   
    67    34    35 1   
    68    34    64 1   
    69    34    65 1   
    70    35    36 1   
    71    35    37 1   
    72    35    66 1   
    73    36    67 1   
    74    36    68 1   
    75    37    69 1   
    76    37    70 1   
@<TRIPOS>SUBSTRUCTURE
     1 0W2         1 TEMP              0 ****  ****    0 ROOT
