@<TRIPOS>MOLECULE
0W3
  121   122     1     0     0
SMALL
bcc


@<TRIPOS>ATOM
      1 O0           3.4850     2.9380    -0.2900 os         1 0W3      -0.418600
      2 O1           3.0630    -0.5400     0.5460 os         1 0W3      -0.432600
      3 C2           3.7650     1.5510    -0.2820 c5         1 0W3       0.154100
      4 O2           3.2310     4.7720    -3.3840 oh         1 0W3      -0.619800
      5 C3           2.6530     0.8220     0.4750 c5         1 0W3       0.160800
      6 O3           3.3540    -3.3260     0.0790 oh         1 0W3      -0.609800
      7 C4           3.9750     3.5650    -1.4770 c5         1 0W3       0.163800
      8 O4           3.2450    -5.9490    -0.2440 oh         1 0W3      -0.628800
      9 C5           2.7280    -1.1230     1.8040 c5         1 0W3       0.150100
     10 O5          -3.5510    -3.2150     1.7570 o          1 0W3      -0.504100
     11 C6           3.9780     1.1750    -1.7420 c5         1 0W3      -0.104400
     12 O6          -1.4420    -1.3160     2.4320 o          1 0W3      -0.512100
     13 C7           2.5700     1.2700     1.9380 c5         1 0W3      -0.093400
     14 O7          -1.1470     6.8640    -2.5410 o          1 0W3      -0.849800
     15 C8           4.6430     2.4350    -2.2800 c5         1 0W3      -0.104400
     16 O8          -0.9000     8.8850    -1.6420 o          1 0W3      -0.849800
     17 C9           2.1100     0.0010     2.6420 c5         1 0W3      -0.116400
     18 C10          1.2950     0.9300    -0.2130 c3         1 0W3      -0.104100
     19 C11          2.7490     4.1250    -2.2230 c3         1 0W3       0.152100
     20 C12          1.7710    -2.2940     1.6280 c3         1 0W3      -0.124400
     21 C13          4.9700     4.6510    -1.0920 c3         1 0W3      -0.083100
     22 C14          2.4000    -3.5820     1.1090 c3         1 0W3       0.149100
     23 C15          1.8970     5.0610    -1.3810 c3         1 0W3      -0.137100
     24 C16          1.3550    -4.6130     0.6390 c3         1 0W3      -0.128700
     25 C17          1.9850    -6.0000     0.3930 c3         1 0W3       0.169100
     26 C18          0.2180    -4.7360     1.6550 c3         1 0W3      -0.093100
     27 C19          1.0650    -6.9380    -0.4140 c3         1 0W3      -0.041500
     28 C20          0.8840    -6.4480    -1.8180 c2         1 0W3      -0.145200
     29 C21          1.6280    -8.3610    -0.4260 c3         1 0W3      -0.076100
     30 C22         -0.2430    -6.0740    -2.4220 c2         1 0W3      -0.185200
     31 C23         -1.6220    -6.0170    -1.8390 c3         1 0W3      -0.037200
     32 C24         -2.1020    -4.5950    -1.5030 c3         1 0W3      -0.060700
     33 C25         -4.1890    -3.3550    -0.5340 c3         1 0W3      -0.161700
     34 C26         -3.4340    -2.7640     0.6440 c          1 0W3       0.584100
     35 C27         -2.0990    -0.7970     1.5620 c          1 0W3       0.587100
     36 C28         -3.5380    -4.6740    -0.9780 c3         1 0W3      -0.067400
     37 C29         -2.5390     0.6480     1.6030 c3         1 0W3      -0.157700
     38 C30         -2.5260    -1.5840     0.3410 c3         1 0W3      -0.301400
     39 C31         -1.8150     1.4380     2.6890 c3         1 0W3      -0.063400
     40 C32         -2.1160     2.9390     2.7330 c3         1 0W3      -0.058700
     41 C33         -1.9800    -3.6640    -2.7060 c3         1 0W3      -0.090100
     42 C34         -5.6530    -3.5830    -0.1610 c3         1 0W3      -0.082100
     43 C35         -1.8440     3.6090     1.3850 c3         1 0W3      -0.072400
     44 C36         -4.0650     0.7020     1.7470 c3         1 0W3      -0.083100
     45 C37         -2.0530     5.1230     1.3220 c3         1 0W3      -0.066700
     46 C38         -1.2970     3.5710     3.8560 c3         1 0W3      -0.085100
     47 C39         -1.7380     5.6220    -0.0920 c3         1 0W3      -0.053400
     48 C40         -3.4620     5.5140     1.7560 c3         1 0W3      -0.080100
     49 C41         -1.5370     7.1240    -0.1930 c3         1 0W3      -0.206400
     50 C42         -1.1590     7.6630    -1.5830 c          1 0W3       0.926600
     51 H2           4.7000     1.3660     0.2710 h1         1 0W3       0.042700
     52 HO2          2.4740     5.0960    -3.8810 ho         1 0W3       0.421000
     53 HO3          2.9840    -2.6850    -0.5390 ho         1 0W3       0.425000
     54 HO4          3.4780    -5.0160    -0.3810 ho         1 0W3       0.440000
     55 H5           3.6570    -1.4720     2.2730 h1         1 0W3       0.057700
     56 H6           4.5960     0.2850    -1.8540 hc         1 0W3       0.054700
     57 H6A          3.0290     0.9900    -2.2490 hc         1 0W3       0.054700
     58 H7           3.5540     1.5760     2.3010 hc         1 0W3       0.064700
     59 H7A          1.8870     2.1080     2.0790 hc         1 0W3       0.064700
     60 H8           4.5230     2.5620    -3.3550 hc         1 0W3       0.056200
     61 H8A          5.7160     2.4120    -2.0750 hc         1 0W3       0.056200
     62 H9           1.0210    -0.0790     2.6380 hc         1 0W3       0.056700
     63 H9A          2.4280    -0.0510     3.6830 hc         1 0W3       0.056700
     64 H10          0.5020     0.5010     0.4050 hc         1 0W3       0.042700
     65 H10A         1.0350     1.9710    -0.4090 hc         1 0W3       0.042700
     66 H10B         1.2860     0.3930    -1.1620 hc         1 0W3       0.042700
     67 H11          2.1280     3.2590    -2.5040 h1         1 0W3       0.020700
     68 H12          1.3170    -2.5090     2.5970 hc         1 0W3       0.059200
     69 H12A         0.9480    -1.9680     0.9810 hc         1 0W3       0.059200
     70 H13          5.7900     4.2190    -0.5160 hc         1 0W3       0.042033
     71 H13A         5.4000     5.1190    -1.9770 hc         1 0W3       0.042033
     72 H13B         4.5140     5.4350    -0.4860 hc         1 0W3       0.042033
     73 H14          2.9790    -4.0250     1.9270 h1         1 0W3       0.068700
     74 H15          1.0040     5.3750    -1.9250 hc         1 0W3       0.060700
     75 H15A         1.5630     4.5720    -0.4660 hc         1 0W3       0.060700
     76 H15B         2.4410     5.9640    -1.1020 hc         1 0W3       0.060700
     77 H16          0.9320    -4.2450    -0.3080 hc         1 0W3       0.056700
     78 H17          2.1190    -6.4600     1.3860 h1         1 0W3       0.037700
     79 H18          0.6050    -4.9340     2.6570 hc         1 0W3       0.041367
     80 H18A        -0.3810    -3.8270     1.7040 hc         1 0W3       0.041367
     81 H18B        -0.4650    -5.5480     1.4080 hc         1 0W3       0.041367
     82 H19          0.1000    -6.9780     0.0980 hc         1 0W3       0.047700
     83 H20          1.7930    -6.4230    -2.4130 ha         1 0W3       0.127000
     84 H21          1.7850    -8.7280     0.5910 hc         1 0W3       0.034033
     85 H21A         0.9390    -9.0450    -0.9230 hc         1 0W3       0.034033
     86 H21B         2.5820    -8.4120    -0.9520 hc         1 0W3       0.034033
     87 H22         -0.1640    -5.7710    -3.4620 ha         1 0W3       0.114000
     88 H23         -2.3240    -6.4510    -2.5610 hc         1 0W3       0.041200
     89 H23A        -1.6890    -6.6330    -0.9390 hc         1 0W3       0.041200
     90 H24         -1.4460    -4.2190    -0.7060 hc         1 0W3       0.050700
     91 H25         -4.1570    -2.6480    -1.3660 hc         1 0W3       0.061700
     92 H28         -4.1700    -5.0970    -1.7670 hc         1 0W3       0.046700
     93 H28A        -3.5800    -5.3790    -0.1410 hc         1 0W3       0.046700
     94 H29         -2.2900     1.0570     0.6160 hc         1 0W3       0.071700
     95 H30         -1.6260    -1.9890    -0.1400 hc         1 0W3       0.082700
     96 H30A        -2.9970    -0.9490    -0.4110 hc         1 0W3       0.082700
     97 H31         -2.0550     1.0050     3.6650 hc         1 0W3       0.044700
     98 H31A        -0.7340     1.3110     2.5610 hc         1 0W3       0.044700
     99 H32         -3.1750     3.0700     2.9810 hc         1 0W3       0.043700
    100 H33         -2.3130    -2.6500    -2.4820 hc         1 0W3       0.034367
    101 H33A        -0.9480    -3.5870    -3.0490 hc         1 0W3       0.034367
    102 H33B        -2.5830    -4.0300    -3.5410 hc         1 0W3       0.034367
    103 H34         -5.7510    -4.3100     0.6450 hc         1 0W3       0.041033
    104 H34A        -6.1370    -2.6580     0.1560 hc         1 0W3       0.041033
    105 H34B        -6.2000    -3.9600    -1.0250 hc         1 0W3       0.041033
    106 H35         -0.8110     3.3860     1.0880 hc         1 0W3       0.033700
    107 H35A        -2.4780     3.1530     0.6160 hc         1 0W3       0.033700
    108 H36         -4.3770     0.3420     2.7290 hc         1 0W3       0.040033
    109 H36A        -4.4240     1.7250     1.6340 hc         1 0W3       0.040033
    110 H36B        -4.5730     0.1040     0.9890 hc         1 0W3       0.040033
    111 H37         -1.3390     5.5980     2.0060 hc         1 0W3       0.040700
    112 H38         -1.5290     4.6270     3.9920 hc         1 0W3       0.031367
    113 H38A        -1.4870     3.0700     4.8070 hc         1 0W3       0.031367
    114 H38B        -0.2250     3.4920     3.6500 hc         1 0W3       0.031367
    115 H39         -0.8310     5.1230    -0.4410 hc         1 0W3       0.036700
    116 H39A        -2.5350     5.3000    -0.7710 hc         1 0W3       0.036700
    117 H40         -3.6590     5.2550     2.7970 hc         1 0W3       0.023033
    118 H40A        -3.6300     6.5880     1.6580 hc         1 0W3       0.023033
    119 H40B        -4.2120     5.0040     1.1450 hc         1 0W3       0.023033
    120 H41         -2.4390     7.6570     0.1320 hc         1 0W3       0.018700
    121 H41A        -0.7600     7.4330     0.5170 hc         1 0W3       0.018700
@<TRIPOS>BOND
     1     1     3 1   
     2     1     7 1   
     3     2     5 1   
     4     2     9 1   
     5     3     5 1   
     6     3    11 1   
     7     3    51 1   
     8     4    19 1   
     9     4    52 1   
    10     5    13 1   
    11     5    18 1   
    12     6    22 1   
    13     6    53 1   
    14     7    15 1   
    15     7    19 1   
    16     7    21 1   
    17     8    25 1   
    18     8    54 1   
    19     9    17 1   
    20     9    20 1   
    21     9    55 1   
    22    10    34 2   
    23    11    15 1   
    24    11    56 1   
    25    11    57 1   
    26    12    35 2   
    27    13    17 1   
    28    13    58 1   
    29    13    59 1   
    30    14    50 1   
    31    15    60 1   
    32    15    61 1   
    33    16    50 1   
    34    17    62 1   
    35    17    63 1   
    36    18    64 1   
    37    18    65 1   
    38    18    66 1   
    39    19    23 1   
    40    19    67 1   
    41    20    22 1   
    42    20    68 1   
    43    20    69 1   
    44    21    70 1   
    45    21    71 1   
    46    21    72 1   
    47    22    24 1   
    48    22    73 1   
    49    23    74 1   
    50    23    75 1   
    51    23    76 1   
    52    24    25 1   
    53    24    26 1   
    54    24    77 1   
    55    25    27 1   
    56    25    78 1   
    57    26    79 1   
    58    26    80 1   
    59    26    81 1   
    60    27    28 1   
    61    27    29 1   
    62    27    82 1   
    63    28    30 2   
    64    28    83 1   
    65    29    84 1   
    66    29    85 1   
    67    29    86 1   
    68    30    31 1   
    69    30    87 1   
    70    31    32 1   
    71    31    88 1   
    72    31    89 1   
    73    32    36 1   
    74    32    41 1   
    75    32    90 1   
    76    33    34 1   
    77    33    36 1   
    78    33    42 1   
    79    33    91 1   
    80    34    38 1   
    81    35    37 1   
    82    35    38 1   
    83    36    92 1   
    84    36    93 1   
    85    37    39 1   
    86    37    44 1   
    87    37    94 1   
    88    38    95 1   
    89    38    96 1   
    90    39    40 1   
    91    39    97 1   
    92    39    98 1   
    93    40    43 1   
    94    40    46 1   
    95    40    99 1   
    96    41   100 1   
    97    41   101 1   
    98    41   102 1   
    99    42   103 1   
   100    42   104 1   
   101    42   105 1   
   102    43    45 1   
   103    43   106 1   
   104    43   107 1   
   105    44   108 1   
   106    44   109 1   
   107    44   110 1   
   108    45    47 1   
   109    45    48 1   
   110    45   111 1   
   111    46   112 1   
   112    46   113 1   
   113    46   114 1   
   114    47    49 1   
   115    47   115 1   
   116    47   116 1   
   117    48   117 1   
   118    48   118 1   
   119    48   119 1   
   120    49    50 1   
   121    49   120 1   
   122    49   121 1   
@<TRIPOS>SUBSTRUCTURE
     1 0W3         1 TEMP              0 ****  ****    0 ROOT
