@<TRIPOS>MOLECULE
0W3
  121   122     1     0     0
SMALL
No Charge or Current Charge


@<TRIPOS>ATOM
      1 O0           3.1950     2.8240     0.4580 os         1 0W3      -0.465000
      2 O1           3.4510    -0.8560     0.9090 os         1 0W3      -0.479000
      3 C2           3.7480     1.5030     0.3070 c5         1 0W3       0.177300
      4 O2           2.8350     5.3140    -2.2940 oh         1 0W3      -0.742000
      5 C3           2.8330     0.4440     1.0550 c5         1 0W3       0.184000
      6 O3           3.2300    -3.1470    -0.4080 oh         1 0W3      -0.672000
      7 C4           3.6910     3.6630    -0.6180 c5         1 0W3       0.187000
      8 O4           2.9750    -5.4260    -1.6800 oh         1 0W3      -0.691000
      9 C5           3.1330    -1.6780     2.0620 c5         1 0W3       0.173300
     10 O5          -2.6360    -3.8660     2.8620 o          1 0W3      -0.504100
     11 C6           3.6750     1.2910    -1.2250 c5         1 0W3      -0.104400
     12 O6          -2.3370    -0.8300     4.1820 o          1 0W3      -0.512100
     13 C7           3.0340     0.7040     2.5750 c5         1 0W3      -0.093400
     14 O7          -1.0780     5.0210    -4.8140 o          1 0W3      -0.744500
     15 C8           4.2780     2.6460    -1.6720 c5         1 0W3      -0.104400
     16 O8           0.6100     5.6500    -3.6300 o          1 0W3      -0.744500
     17 C9           2.6510    -0.6820     3.1670 c5         1 0W3      -0.116400
     18 C10          1.3430     0.4020     0.5970 c3         1 0W3      -0.104100
     19 C11          2.4680     4.4920    -1.1750 c3         1 0W3       0.175300
     20 C12          2.0910    -2.7560     1.6690 c3         1 0W3      -0.124400
     21 C13          4.7990     4.5830    -0.0340 c3         1 0W3      -0.083100
     22 C14          2.5680    -3.8330     0.6590 c3         1 0W3       0.172300
     23 C15          1.7480     5.3890    -0.1420 c3         1 0W3      -0.137100
     24 C16          1.4070    -4.7080     0.0640 c3         1 0W3      -0.128700
     25 C17          1.8910    -5.8770    -0.8660 c3         1 0W3       0.192300
     26 C18          0.4720    -5.2620     1.1820 c3         1 0W3      -0.093100
     27 C19          0.7750    -6.4790    -1.7870 c3         1 0W3      -0.041500
     28 C20          0.2740    -5.4720    -2.8200 c2         1 0W3      -0.195200
     29 C21          1.2430    -7.7730    -2.4930 c3         1 0W3      -0.076100
     30 C22         -0.9130    -4.8370    -2.8780 c2         1 0W3      -0.235200
     31 C23         -2.1050    -4.9480    -1.9370 c3         1 0W3      -0.037200
     32 C24         -2.3170    -3.7110    -1.0150 c3         1 0W3      -0.060700
     33 C25         -3.8250    -2.8740     0.9970 c3         1 0W3      -0.161700
     34 C26         -2.7060    -2.9430     2.0620 c          1 0W3       0.584100
     35 C27         -2.2790    -0.7020     2.9670 c          1 0W3       0.587100
     36 C28         -3.5970    -3.9050    -0.1470 c3         1 0W3      -0.067400
     37 C29         -2.7420     0.6010     2.2660 c3         1 0W3      -0.157700
     38 C30         -1.6980    -1.8070     2.1000 c3         1 0W3      -0.301400
     39 C31         -1.8740     1.8040     2.7470 c3         1 0W3      -0.063400
     40 C32         -2.1280     3.1840     2.0660 c3         1 0W3      -0.058700
     41 C33         -2.3470    -2.3840    -1.8210 c3         1 0W3      -0.090100
     42 C34         -5.2180    -3.0650     1.6490 c3         1 0W3      -0.082100
     43 C35         -1.8480     3.1490     0.5300 c3         1 0W3      -0.072400
     44 C36         -4.2610     0.8270     2.4750 c3         1 0W3      -0.083100
     45 C37         -2.0650     4.4710    -0.2660 c3         1 0W3      -0.066700
     46 C38         -1.2970     4.2760     2.7860 c3         1 0W3      -0.085100
     47 C39         -1.5620     4.3060    -1.7280 c3         1 0W3      -0.053400
     48 C40         -3.5340     4.9610    -0.2060 c3         1 0W3      -0.080100
     49 C41         -1.5030     5.6180    -2.5550 c3         1 0W3      -0.206400
     50 C42         -0.5840     5.4330    -3.7750 c          1 0W3       0.716000
     51 H2           4.7860     1.4990     0.6680 h1         1 0W3       0.042700
     52 HO2          1.9850     5.4650    -2.8150 ho         1 0W3       0.520000
     53 HO3          3.3860    -2.2270    -0.0620 ho         1 0W3       0.464000
     54 HO4          3.1700    -4.5160    -1.3220 ho         1 0W3       0.479000
     55 H5           4.0560    -2.1840     2.3820 h1         1 0W3       0.057700
     56 H6           4.2620     0.4310    -1.5650 hc         1 0W3       0.054700
     57 H6A          2.6530     1.1770    -1.6030 hc         1 0W3       0.054700
     58 H7           4.0730     0.9580     2.8170 hc         1 0W3       0.064700
     59 H7A          2.4010     1.5160     2.9530 hc         1 0W3       0.064700
     60 H8           4.0090     2.8930    -2.7040 hc         1 0W3       0.056200
     61 H8A          5.3740     2.6140    -1.6360 hc         1 0W3       0.056200
     62 H9           1.5720    -0.7610     3.3460 hc         1 0W3       0.056700
     63 H9A          3.1410    -0.8680     4.1290 hc         1 0W3       0.056700
     64 H10          0.6800    -0.0360     1.3480 hc         1 0W3       0.042700
     65 H10A         0.9700     1.4120     0.4030 hc         1 0W3       0.042700
     66 H10B         1.2250    -0.1770    -0.3260 hc         1 0W3       0.042700
     67 H11          1.7330     3.7520    -1.5190 h1         1 0W3       0.020700
     68 H12          1.7740    -3.2630     2.5880 hc         1 0W3       0.059200
     69 H12A         1.1970    -2.2770     1.2600 hc         1 0W3       0.059200
     70 H13          5.6430     3.9930     0.3440 hc         1 0W3       0.042033
     71 H13A         5.1920     5.2660    -0.7960 hc         1 0W3       0.042033
     72 H13B         4.4280     5.1850     0.8020 hc         1 0W3       0.042033
     73 H14          3.2790    -4.4930     1.1780 h1         1 0W3       0.068700
     74 H15          0.8730     5.8670    -0.5920 hc         1 0W3       0.060700
     75 H15A         1.4030     4.7950     0.7120 hc         1 0W3       0.060700
     76 H15B         2.4070     6.1810     0.2300 hc         1 0W3       0.060700
     77 H16          0.8040    -4.0320    -0.5520 hc         1 0W3       0.056700
     78 H17          2.2560    -6.6810    -0.2110 h1         1 0W3       0.037700
     79 H18          1.0330    -5.8960     1.8790 hc         1 0W3       0.041367
     80 H18A         0.0050    -4.4540     1.7540 hc         1 0W3       0.041367
     81 H18B        -0.3520    -5.8540     0.7750 hc         1 0W3       0.041367
     82 H19         -0.0530    -6.7940    -1.1480 hc         1 0W3       0.047700
     83 H20          1.0110    -5.2650    -3.5980 ha         1 0W3       0.177000
     84 H21          1.5750    -8.5170    -1.7590 hc         1 0W3       0.034033
     85 H21A         0.4210    -8.2120    -3.0720 hc         1 0W3       0.034033
     86 H21B         2.0740    -7.5740    -3.1810 hc         1 0W3       0.034033
     87 H22         -1.0930    -4.1560    -3.7120 ha         1 0W3       0.164000
     88 H23         -3.0110    -5.0980    -2.5380 hc         1 0W3       0.041200
     89 H23A        -2.0230    -5.8410    -1.3090 hc         1 0W3       0.041200
     90 H24         -1.4580    -3.6610    -0.3390 hc         1 0W3       0.050700
     91 H25         -3.8080    -1.8750     0.5500 hc         1 0W3       0.061700
     92 H28         -4.4690    -3.8910    -0.8140 hc         1 0W3       0.046700
     93 H28A        -3.5740    -4.9080     0.2980 hc         1 0W3       0.046700
     94 H29         -2.5840     0.4710     1.1910 hc         1 0W3       0.071700
     95 H30         -0.7820    -2.1700     2.5750 hc         1 0W3       0.082700
     96 H30A        -1.5420    -1.4270     1.0870 hc         1 0W3       0.082700
     97 H31         -2.0230     1.9180     3.8280 hc         1 0W3       0.044700
     98 H31A        -0.8150     1.5450     2.6170 hc         1 0W3       0.044700
     99 H32         -3.1820     3.4380     2.2210 hc         1 0W3       0.043700
    100 H33         -2.4660    -1.5130    -1.1680 hc         1 0W3       0.034367
    101 H33A        -1.4100    -2.2340    -2.3690 hc         1 0W3       0.034367
    102 H33B        -3.1720    -2.3850    -2.5430 hc         1 0W3       0.034367
    103 H34         -5.3280    -4.0800     2.0510 hc         1 0W3       0.041033
    104 H34A        -5.3660    -2.3570     2.4730 hc         1 0W3       0.041033
    105 H34B        -6.0160    -2.9020     0.9140 hc         1 0W3       0.041033
    106 H35         -0.8110     2.8290     0.3870 hc         1 0W3       0.033700
    107 H35A        -2.4750     2.3810     0.0640 hc         1 0W3       0.033700
    108 H36         -4.4880     1.0250     3.5300 hc         1 0W3       0.040033
    109 H36A        -4.6210     1.6740     1.8800 hc         1 0W3       0.040033
    110 H36B        -4.8300    -0.0550     2.1620 hc         1 0W3       0.040033
    111 H37         -1.4410     5.2460     0.1920 hc         1 0W3       0.040700
    112 H38         -1.5800     5.2800     2.4490 hc         1 0W3       0.031367
    113 H38A        -1.4660     4.2410     3.8690 hc         1 0W3       0.031367
    114 H38B        -0.2250     4.1360     2.6040 hc         1 0W3       0.031367
    115 H39         -0.5540     3.8770    -1.6960 hc         1 0W3       0.036700
    116 H39A        -2.1870     3.5730    -2.2550 hc         1 0W3       0.036700
    117 H40         -3.8460     5.1500     0.8280 hc         1 0W3       0.023033
    118 H40A        -3.6600     5.9010    -0.7560 hc         1 0W3       0.023033
    119 H40B        -4.2120     4.2160    -0.6390 hc         1 0W3       0.023033
    120 H41         -2.5310     5.8280    -2.8740 hc         1 0W3       0.018700
    121 H41A        -1.0840     6.3830    -1.8900 hc         1 0W3       0.018700
@<TRIPOS>BOND
     1     1     3 1   
     2     1     7 1   
     3     2     5 1   
     4     2     9 1   
     5     3     5 1   
     6     3    11 1   
     7     3    51 1   
     8     4    19 1   
     9     4    52 1   
    10     5    13 1   
    11     5    18 1   
    12     6    22 1   
    13     6    53 1   
    14     7    15 1   
    15     7    19 1   
    16     7    21 1   
    17     8    25 1   
    18     8    54 1   
    19     9    17 1   
    20     9    20 1   
    21     9    55 1   
    22    10    34 2   
    23    11    15 1   
    24    11    56 1   
    25    11    57 1   
    26    12    35 2   
    27    13    17 1   
    28    13    58 1   
    29    13    59 1   
    30    14    50 1   
    31    15    60 1   
    32    15    61 1   
    33    16    50 1   
    34    17    62 1   
    35    17    63 1   
    36    18    64 1   
    37    18    65 1   
    38    18    66 1   
    39    19    23 1   
    40    19    67 1   
    41    20    22 1   
    42    20    68 1   
    43    20    69 1   
    44    21    70 1   
    45    21    71 1   
    46    21    72 1   
    47    22    24 1   
    48    22    73 1   
    49    23    74 1   
    50    23    75 1   
    51    23    76 1   
    52    24    25 1   
    53    24    26 1   
    54    24    77 1   
    55    25    27 1   
    56    25    78 1   
    57    26    79 1   
    58    26    80 1   
    59    26    81 1   
    60    27    28 1   
    61    27    29 1   
    62    27    82 1   
    63    28    30 2   
    64    28    83 1   
    65    29    84 1   
    66    29    85 1   
    67    29    86 1   
    68    30    31 1   
    69    30    87 1   
    70    31    32 1   
    71    31    88 1   
    72    31    89 1   
    73    32    36 1   
    74    32    41 1   
    75    32    90 1   
    76    33    34 1   
    77    33    36 1   
    78    33    42 1   
    79    33    91 1   
    80    34    38 1   
    81    35    37 1   
    82    35    38 1   
    83    36    92 1   
    84    36    93 1   
    85    37    39 1   
    86    37    44 1   
    87    37    94 1   
    88    38    95 1   
    89    38    96 1   
    90    39    40 1   
    91    39    97 1   
    92    39    98 1   
    93    40    43 1   
    94    40    46 1   
    95    40    99 1   
    96    41   100 1   
    97    41   101 1   
    98    41   102 1   
    99    42   103 1   
   100    42   104 1   
   101    42   105 1   
   102    43    45 1   
   103    43   106 1   
   104    43   107 1   
   105    44   108 1   
   106    44   109 1   
   107    44   110 1   
   108    45    47 1   
   109    45    48 1   
   110    45   111 1   
   111    46   112 1   
   112    46   113 1   
   113    46   114 1   
   114    47    49 1   
   115    47   115 1   
   116    47   116 1   
   117    48   117 1   
   118    48   118 1   
   119    48   119 1   
   120    49    50 1   
   121    49   120 1   
   122    49   121 1   
@<TRIPOS>SUBSTRUCTURE
     1 0W3         1 TEMP              0 ****  ****    0 ROOT
