@<TRIPOS>MOLECULE
0W4
   42    44     1     0     0
SMALL
bcc


@<TRIPOS>ATOM
      1 C19          6.3260    40.6430    26.4960 c3         1 0W4       0.150300
      2 C20          7.3220    41.6350    27.0350 ca         1 0W4      -0.106300
      3 N1           7.2490    36.9220    27.9070 nb         1 0W4      -0.612000
      4 C2           6.0010    37.2730    28.1480 ca         1 0W4       0.156500
      5 C7           5.5530    38.6020    27.6350 c          1 0W4       0.599600
      6 C6           7.6950    35.7510    28.3310 ca         1 0W4       0.205900
      7 C5           6.8450    34.9010    29.0230 ca         1 0W4       0.372900
      8 C3           5.1340    36.4010    28.8670 ca         1 0W4       0.625900
      9 C11          3.0030    35.8710    29.9410 c3         1 0W4       0.281100
     10 C12          2.3620    34.7390    29.1680 ca         1 0W4      -0.084300
     11 C17          2.4780    34.6310    27.7860 ca         1 0W4      -0.108000
     12 C16          1.8740    33.5940    27.0880 ca         1 0W4      -0.124000
     13 C15          1.1370    32.6350    27.7670 ca         1 0W4      -0.122000
     14 C14          1.0010    32.7210    29.1440 ca         1 0W4      -0.119000
     15 C13          1.6090    33.7670    29.8210 ca         1 0W4       0.031400
     16 C21          7.2810    42.0990    28.3480 ca         1 0W4       0.045400
     17 C22          8.2090    43.0070    28.8330 ca         1 0W4      -0.125000
     18 C23          9.2110    43.4700    27.9930 ca         1 0W4      -0.112000
     19 C24          9.2770    43.0260    26.6810 ca         1 0W4      -0.129000
     20 C25          8.3380    42.1170    26.2150 ca         1 0W4      -0.111000
     21 N10          3.8610    36.7160    29.1600 nu         1 0W4      -0.861900
     22 N4           5.5910    35.2170    29.2850 nb         1 0W4      -0.732000
     23 N9           6.5200    39.3310    27.0660 ns         1 0W4      -0.543900
     24 O8           4.3850    38.9710    27.7340 o          1 0W4      -0.642100
     25 CL1          1.4070    33.8580    31.5460 cl         1 0W4      -0.122400
     26 CL2          6.0320    41.5470    29.4180 cl         1 0W4      -0.099400
     27 H1           5.3070    40.9650    26.7040 h1         1 0W4       0.067700
     28 H2           6.4300    40.5940    25.4100 h1         1 0W4       0.067700
     29 H3           8.7220    35.4860    28.1190 h4         1 0W4       0.033100
     30 H4           7.1930    33.9350    29.3720 h4         1 0W4       0.028100
     31 H5           2.2220    36.5060    30.3630 h1         1 0W4       0.073200
     32 H6           3.5590    35.4640    30.7870 h1         1 0W4       0.073200
     33 H7           3.0470    35.3760    27.2440 ha         1 0W4       0.140000
     34 H8           1.9820    33.5380    26.0130 ha         1 0W4       0.135000
     35 H9           0.6660    31.8220    27.2310 ha         1 0W4       0.135000
     36 H10          0.4270    31.9830    29.6870 ha         1 0W4       0.146000
     37 H11          8.1480    43.3520    29.8570 ha         1 0W4       0.149000
     38 H12          9.9370    44.1780    28.3700 ha         1 0W4       0.137000
     39 H13         10.0550    43.3850    26.0210 ha         1 0W4       0.137000
     40 H14          8.3880    41.7700    25.1910 ha         1 0W4       0.134000
     41 H15          3.5170    37.5930    28.7980 hn         1 0W4       0.487800
     42 H16          7.4380    38.9140    27.0110 hn         1 0W4       0.343500
@<TRIPOS>BOND
     1     1     2 1   
     2     1    23 1   
     3     1    27 1   
     4     1    28 1   
     5     2    16 ar  
     6     2    20 ar  
     7     3     4 ar  
     8     3     6 ar  
     9     4     5 1   
    10     4     8 ar  
    11     5    23 1   
    12     5    24 2   
    13     6     7 ar  
    14     6    29 1   
    15     7    22 ar  
    16     7    30 1   
    17     8    21 1   
    18     8    22 ar  
    19     9    10 1   
    20     9    21 1   
    21     9    31 1   
    22     9    32 1   
    23    10    11 ar  
    24    10    15 ar  
    25    11    12 ar  
    26    11    33 1   
    27    12    13 ar  
    28    12    34 1   
    29    13    14 ar  
    30    13    35 1   
    31    14    15 ar  
    32    14    36 1   
    33    15    25 1   
    34    16    17 ar  
    35    16    26 1   
    36    17    18 ar  
    37    17    37 1   
    38    18    19 ar  
    39    18    38 1   
    40    19    20 ar  
    41    19    39 1   
    42    20    40 1   
    43    21    41 1   
    44    23    42 1   
@<TRIPOS>SUBSTRUCTURE
     1 0W4         1 TEMP              0 ****  ****    0 ROOT
