@<TRIPOS>MOLECULE
0W4
   42    44     1     0     0
SMALL
No Charge or Current Charge


@<TRIPOS>ATOM
      1 C19          5.7520    40.6160    27.5060 c3         1 0W4       0.150300
      2 C20          7.0330    41.3060    27.0550 ca         1 0W4      -0.106300
      3 N1           6.9970    37.1340    29.5460 nb         1 0W4      -0.612000
      4 C2           5.6360    37.3520    29.5430 ca         1 0W4       0.156500
      5 C7           5.0930    38.5860    28.8350 c          1 0W4       0.532600
      6 C6           7.4070    36.0110    30.1960 ca         1 0W4       0.205900
      7 C5           6.4960    35.1240    30.8300 ca         1 0W4       0.372900
      8 C3           4.7320    36.4410    30.1880 ca         1 0W4       0.625900
      9 C11          2.3640    35.5100    30.0950 c3         1 0W4       0.281100
     10 C12          2.4440    34.8640    28.7100 ca         1 0W4      -0.084300
     11 C17          2.1610    35.6520    27.5720 ca         1 0W4      -0.090000
     12 C16          2.2300    35.1000    26.2820 ca         1 0W4      -0.106000
     13 C15          2.5770    33.7510    26.1120 ca         1 0W4      -0.104000
     14 C14          2.8530    32.9550    27.2350 ca         1 0W4      -0.101000
     15 C13          2.7880    33.5010    28.5290 ca         1 0W4       0.123000
     16 C21          7.7770    42.1260    27.9340 ca         1 0W4       0.137000
     17 C22          8.9570    42.7490    27.4910 ca         1 0W4      -0.107000
     18 C23          9.4060    42.5590    26.1740 ca         1 0W4      -0.094000
     19 C24          8.6730    41.7440    25.2970 ca         1 0W4      -0.111000
     20 C25          7.4930    41.1190    25.7350 ca         1 0W4      -0.093000
     21 N10          3.3530    36.5950    30.2170 nu         1 0W4      -0.917100
     22 N4           5.1510    35.3330    30.8320 nb         1 0W4      -0.732000
     23 N9           6.0400    39.3810    28.2290 ns         1 0W4      -0.476900
     24 O8           3.9020    38.8810    28.7920 o          1 0W4      -0.642100
     25 Cl1          3.1370    32.4340    29.8910 cl         1 0W4      -0.214000
     26 Cl2          7.2610    42.3870    29.6010 cl         1 0W4      -0.191000
     27 H1           5.1660    41.2850    28.1490 h1         1 0W4       0.067700
     28 H2           5.1320    40.3750    26.6320 h1         1 0W4       0.067700
     29 H3           8.4780    35.8150    30.2130 h4         1 0W4       0.033100
     30 H4           6.8540    34.2330    31.3430 h4         1 0W4       0.028100
     31 H5           1.3510    35.9160    30.2270 h1         1 0W4       0.073200
     32 H6           2.5070    34.7710    30.8940 h1         1 0W4       0.073200
     33 H7           1.8890    36.6990    27.6870 ha         1 0W4       0.122000
     34 H8           2.0120    35.7190    25.4140 ha         1 0W4       0.117000
     35 H9           2.6300    33.3230    25.1130 ha         1 0W4       0.117000
     36 H10          3.1180    31.9090    27.1040 ha         1 0W4       0.128000
     37 H11          9.5250    43.3780    28.1730 ha         1 0W4       0.131000
     38 H12         10.3200    43.0420    25.8340 ha         1 0W4       0.119000
     39 H13          9.0200    41.5940    24.2760 ha         1 0W4       0.119000
     40 H14          6.9350    40.4880    25.0470 ha         1 0W4       0.116000
     41 H15          3.0880    37.4800    29.7680 hn         1 0W4       0.543000
     42 H16          7.0020    39.0700    28.3150 hn         1 0W4       0.343500
@<TRIPOS>BOND
     1     1     2 1   
     2     1    23 1   
     3     1    27 1   
     4     1    28 1   
     5     2    16 ar  
     6     2    20 ar  
     7     3     4 ar  
     8     3     6 ar  
     9     4     5 1   
    10     4     8 ar  
    11     5    23 1   
    12     5    24 2   
    13     6     7 ar  
    14     6    29 1   
    15     7    22 ar  
    16     7    30 1   
    17     8    21 1   
    18     8    22 ar  
    19     9    10 1   
    20     9    21 1   
    21     9    31 1   
    22     9    32 1   
    23    10    11 ar  
    24    10    15 ar  
    25    11    12 ar  
    26    11    33 1   
    27    12    13 ar  
    28    12    34 1   
    29    13    14 ar  
    30    13    35 1   
    31    14    15 ar  
    32    14    36 1   
    33    15    25 1   
    34    16    17 ar  
    35    16    26 1   
    36    17    18 ar  
    37    17    37 1   
    38    18    19 ar  
    39    18    38 1   
    40    19    20 ar  
    41    19    39 1   
    42    20    40 1   
    43    21    41 1   
    44    23    42 1   
@<TRIPOS>SUBSTRUCTURE
     1 0W4         1 TEMP              0 ****  ****    0 ROOT
