@<TRIPOS>MOLECULE
0W5
   36    35     1     0     0
SMALL
No Charge or Current Charge


@<TRIPOS>ATOM
      1 O1           6.3100    -1.1410     0.2340 o          1 0W5      -0.726000
      2 C2           5.9150    -0.4930    -0.7230 c          1 0W5       0.695200
      3 C27          4.5390     0.0980    -0.6830 ce         1 0W5      -0.216200
      4 C28          3.6410    -0.0090     0.3430 cf         1 0W5      -0.257000
      5 C29          2.3120     0.5830     0.3400 cf         1 0W5      -0.125000
      6 C30          1.4410     0.4640     1.3650 c2         1 0W5      -0.294200
      7 C31          0.0490     1.0590     1.4090 c3         1 0W5      -0.024200
      8 C32         -0.9850     0.1830     0.6700 c3         1 0W5      -0.074400
      9 C33         -2.4140     0.7690     0.7080 c3         1 0W5      -0.076400
     10 C34         -3.4470    -0.1090    -0.0330 c3         1 0W5      -0.075400
     11 C35         -4.8780     0.4790     0.0100 c3         1 0W5      -0.072400
     12 C36         -5.9330    -0.3120    -0.8120 c3         1 0W5      -0.060700
     13 C37         -6.1330    -1.7610    -0.3060 c3         1 0W5      -0.085600
     14 C38         -7.2810     0.4440    -0.8510 c3         1 0W5      -0.085600
     15 H28          4.2570     0.6610    -1.5700 ha         1 0W5       0.139000
     16 H29          3.9310    -0.5760     1.2310 ha         1 0W5       0.186000
     17 H30          2.0180     1.1510    -0.5460 ha         1 0W5       0.147000
     18 H31          1.7230    -0.1020     2.2550 ha         1 0W5       0.165000
     19 H32         -0.2670     1.1840     2.4520 hc         1 0W5       0.029200
     20 H33          0.0570     2.0620     0.9640 hc         1 0W5       0.029200
     21 H34         -0.6720     0.0630    -0.3740 hc         1 0W5       0.039700
     22 H35         -0.9920    -0.8170     1.1190 hc         1 0W5       0.039700
     23 H36         -2.7270     0.8880     1.7520 hc         1 0W5       0.032200
     24 H37         -2.4040     1.7700     0.2590 hc         1 0W5       0.032200
     25 H38         -3.1360    -0.2260    -1.0790 hc         1 0W5       0.037700
     26 H39         -3.4440    -1.1080     0.4180 hc         1 0W5       0.037700
     27 H40         -5.2080     0.5440     1.0540 hc         1 0W5       0.034700
     28 H41         -4.8390     1.5080    -0.3690 hc         1 0W5       0.034700
     29 H42         -5.5710    -0.3730    -1.8460 hc         1 0W5       0.043700
     30 H43         -5.2160    -2.3500    -0.4150 hc         1 0W5       0.029533
     31 H44         -6.4260    -1.7680     0.7510 hc         1 0W5       0.029533
     32 H45         -6.9180    -2.2660    -0.8820 hc         1 0W5       0.029533
     33 H46         -7.1510     1.4500    -1.2660 hc         1 0W5       0.029533
     34 H47         -8.0070    -0.0880    -1.4780 hc         1 0W5       0.029533
     35 H48         -7.7040     0.5400     0.1570 hc         1 0W5       0.029533
     36 OXT          6.5850    -0.2970    -1.7250 o          1 0W5      -0.726000
@<TRIPOS>BOND
     1     1     2 1   
     2     2     3 1   
     3     2    36 1   
     4     3     4 2   
     5     3    15 1   
     6     4     5 1   
     7     4    16 1   
     8     5     6 2   
     9     5    17 1   
    10     6     7 1   
    11     6    18 1   
    12     7     8 1   
    13     7    19 1   
    14     7    20 1   
    15     8     9 1   
    16     8    21 1   
    17     8    22 1   
    18     9    10 1   
    19     9    23 1   
    20     9    24 1   
    21    10    11 1   
    22    10    25 1   
    23    10    26 1   
    24    11    12 1   
    25    11    27 1   
    26    11    28 1   
    27    12    13 1   
    28    12    14 1   
    29    12    29 1   
    30    13    30 1   
    31    13    31 1   
    32    13    32 1   
    33    14    33 1   
    34    14    34 1   
    35    14    35 1   
@<TRIPOS>SUBSTRUCTURE
     1 0W5         1 TEMP              0 ****  ****    0 ROOT
