@<TRIPOS>MOLECULE
0W5
   36    35     1     0     0
SMALL
bcc


@<TRIPOS>ATOM
      1 O1           6.2270    -1.3400     0.2900 o          1 0W5      -0.831300
      2 C2           6.1080    -0.3220    -0.4210 c          1 0W5       0.905800
      3 C27          4.7760     0.3860    -0.4220 ce         1 0W5      -0.166200
      4 C28          3.7220    -0.0040     0.3030 cf         1 0W5      -0.207000
      5 C29          2.4380     0.6690     0.3020 cf         1 0W5      -0.075000
      6 C30          1.3880     0.2760     1.0330 c2         1 0W5      -0.244200
      7 C31          0.0500     0.9360     1.0290 c3         1 0W5      -0.024200
      8 C32         -1.0560     0.0090     0.5170 c3         1 0W5      -0.074400
      9 C33         -2.4280     0.6700     0.5300 c3         1 0W5      -0.076400
     10 C34         -3.5330    -0.2230    -0.0220 c3         1 0W5      -0.075400
     11 C35         -4.8980     0.4570    -0.0020 c3         1 0W5      -0.072400
     12 C36         -6.0120    -0.3050    -0.7200 c3         1 0W5      -0.060700
     13 C37         -6.2660    -1.6760    -0.1030 c3         1 0W5      -0.085600
     14 C38         -7.2940     0.5230    -0.7320 c3         1 0W5      -0.085600
     15 H28          4.6850     1.2640    -1.0570 ha         1 0W5       0.089000
     16 H29          3.8170    -0.8820     0.9380 ha         1 0W5       0.136000
     17 H30          2.3380     1.5430    -0.3380 ha         1 0W5       0.097000
     18 H31          1.4920    -0.6010     1.6680 ha         1 0W5       0.115000
     19 H32         -0.2050     1.2520     2.0460 hc         1 0W5       0.029200
     20 H33          0.0830     1.8410     0.4160 hc         1 0W5       0.029200
     21 H34         -0.8120    -0.3110    -0.5010 hc         1 0W5       0.039700
     22 H35         -1.0800    -0.8990     1.1280 hc         1 0W5       0.039700
     23 H36         -2.6790     0.9710     1.5540 hc         1 0W5       0.032200
     24 H37         -2.3890     1.5950    -0.0560 hc         1 0W5       0.032200
     25 H38         -3.2830    -0.5100    -1.0500 hc         1 0W5       0.037700
     26 H39         -3.5650    -1.1520     0.5560 hc         1 0W5       0.037700
     27 H40         -5.2000     0.6370     1.0370 hc         1 0W5       0.034700
     28 H41         -4.8010     1.4470    -0.4620 hc         1 0W5       0.034700
     29 H42         -5.6970    -0.4540    -1.7600 hc         1 0W5       0.043700
     30 H43         -5.3890    -2.3210    -0.1610 hc         1 0W5       0.029533
     31 H44         -6.5410    -1.5840     0.9510 hc         1 0W5       0.029533
     32 H45         -7.0830    -2.1900    -0.6140 hc         1 0W5       0.029533
     33 H46         -7.1350     1.4970    -1.2000 hc         1 0W5       0.029533
     34 H47         -8.0920     0.0180    -1.2790 hc         1 0W5       0.029533
     35 H48         -7.6520     0.7010     0.2850 hc         1 0W5       0.029533
     36 OXT          6.9890     0.1850    -1.1490 o          1 0W5      -0.831300
@<TRIPOS>BOND
     1     1     2 1   
     2     2     3 1   
     3     2    36 1   
     4     3     4 2   
     5     3    15 1   
     6     4     5 1   
     7     4    16 1   
     8     5     6 2   
     9     5    17 1   
    10     6     7 1   
    11     6    18 1   
    12     7     8 1   
    13     7    19 1   
    14     7    20 1   
    15     8     9 1   
    16     8    21 1   
    17     8    22 1   
    18     9    10 1   
    19     9    23 1   
    20     9    24 1   
    21    10    11 1   
    22    10    25 1   
    23    10    26 1   
    24    11    12 1   
    25    11    27 1   
    26    11    28 1   
    27    12    13 1   
    28    12    14 1   
    29    12    29 1   
    30    13    30 1   
    31    13    31 1   
    32    13    32 1   
    33    14    33 1   
    34    14    34 1   
    35    14    35 1   
@<TRIPOS>SUBSTRUCTURE
     1 0W5         1 TEMP              0 ****  ****    0 ROOT
