@<TRIPOS>MOLECULE
0W6
   18    17     1     0     0
SMALL
No Charge or Current Charge


@<TRIPOS>ATOM
      1 N14          2.2800     1.1890     0.7030 n8         1 0W6      -0.975200
      2 C15          1.9080     0.1840    -0.3080 c3         1 0W6       0.144500
      3 C16          2.9850    -0.9180    -0.3410 c3         1 0W6      -0.125100
      4 C17          0.4880    -0.3930    -0.0520 c3         1 0W6      -0.043400
      5 C18         -0.6630     0.6440    -0.1540 c3         1 0W6      -0.200400
      6 C19         -2.0210    -0.0600     0.0060 c          1 0W6       0.715000
      7 O20         -2.4770    -0.1870     1.1320 o          1 0W6      -0.747500
      8 H10          2.2770     0.7440     1.6260 hn         1 0W6       0.372000
      9 H11          1.9060     0.6790    -1.2900 h1         1 0W6       0.047700
     10 H12          3.0320    -1.4530     0.6160 hc         1 0W6       0.022700
     11 H13          2.7630    -1.6470    -1.1290 hc         1 0W6       0.022700
     12 H14          3.9740    -0.4920    -0.5490 hc         1 0W6       0.022700
     13 H15          0.3030    -1.1880    -0.7850 hc         1 0W6       0.036700
     14 H16          0.4600    -0.8710     0.9360 hc         1 0W6       0.036700
     15 H17         -0.5090     1.3600     0.6620 hc         1 0W6       0.024700
     16 H18         -0.5800     1.0880    -1.1540 hc         1 0W6       0.024700
     17 OXT         -2.5620    -0.5040    -0.9950 o          1 0W6      -0.747500
     18 H2           3.2620     1.4500     0.5620 hn         1 0W6       0.372000
@<TRIPOS>BOND
     1     1     2 1   
     2     1     8 1   
     3     1    18 1   
     4     2     3 1   
     5     2     4 1   
     6     2     9 1   
     7     3    10 1   
     8     3    11 1   
     9     3    12 1   
    10     4     5 1   
    11     4    13 1   
    12     4    14 1   
    13     5     6 1   
    14     5    15 1   
    15     5    16 1   
    16     6     7 1   
    17     6    17 1   
@<TRIPOS>SUBSTRUCTURE
     1 0W6         1 TEMP              0 ****  ****    0 ROOT
