@<TRIPOS>MOLECULE
0W6
   18    17     1     0     0
SMALL
bcc


@<TRIPOS>ATOM
      1 N14          2.1660     1.2840     0.5610 n8         1 0W6      -0.864800
      2 C15          1.9190     0.1240    -0.2910 c3         1 0W6       0.144500
      3 C16          2.9950    -0.9540    -0.1720 c3         1 0W6      -0.125100
      4 C17          0.5360    -0.4530     0.0020 c3         1 0W6      -0.043400
      5 C18         -0.6050     0.5040    -0.2990 c3         1 0W6      -0.200400
      6 C19         -2.0210    -0.0220    -0.0130 c          1 0W6       0.925600
      7 O20         -2.1350    -1.1020     0.6010 o          1 0W6      -0.852800
      8 H10          2.2290     0.9740     1.5250 hn         1 0W6       0.316800
      9 H11          1.9210     0.4880    -1.3260 h1         1 0W6       0.047700
     10 H12          3.0220    -1.3660     0.8400 hc         1 0W6       0.022700
     11 H13          2.8130    -1.7810    -0.8620 hc         1 0W6       0.022700
     12 H14          3.9850    -0.5500    -0.3930 hc         1 0W6       0.022700
     13 H15          0.4110    -1.3670    -0.5860 hc         1 0W6       0.036700
     14 H16          0.5000    -0.7670     1.0500 hc         1 0W6       0.036700
     15 H17         -0.4640     1.4300     0.2680 hc         1 0W6       0.024700
     16 H18         -0.5590     0.8110    -1.3500 hc         1 0W6       0.024700
     17 OXT         -2.9620     0.6980    -0.4140 o          1 0W6      -0.852800
     18 H2           3.0750     1.6740     0.3440 hn         1 0W6       0.316800
@<TRIPOS>BOND
     1     1     2 1   
     2     1     8 1   
     3     1    18 1   
     4     2     3 1   
     5     2     4 1   
     6     2     9 1   
     7     3    10 1   
     8     3    11 1   
     9     3    12 1   
    10     4     5 1   
    11     4    13 1   
    12     4    14 1   
    13     5     6 1   
    14     5    15 1   
    15     5    16 1   
    16     6     7 1   
    17     6    17 1   
@<TRIPOS>SUBSTRUCTURE
     1 0W6         1 TEMP              0 ****  ****    0 ROOT
