@<TRIPOS>MOLECULE
0W7
   41    43     1     0     0
SMALL
No Charge or Current Charge


@<TRIPOS>ATOM
      1 O17         -1.8270     2.4230     1.7190 o          1 0W7      -0.567100
      2 C14         -1.6510     2.0710     0.5590 c          1 0W7       0.632100
      3 N15         -2.4400     1.1450    -0.1140 ns         1 0W7      -0.133000
      4 C16         -3.5900     0.4030     0.2740 ca         1 0W7      -0.021000
      5 C19         -4.2410     0.5610     1.5180 ca         1 0W7      -0.150000
      6 C20         -5.3770    -0.2080     1.8290 ca         1 0W7      -0.083500
      7 C23         -4.1010    -0.5330    -0.6470 ca         1 0W7      -0.150000
      8 C22         -5.2360    -1.3010    -0.3350 ca         1 0W7      -0.083500
      9 C21         -5.8740    -1.1390     0.9040 ca         1 0W7      -0.135000
     10 C13         -0.5030     2.6320    -0.2580 c3         1 0W7      -0.214700
     11 C2           0.7590     1.9320     0.1060 cc         1 0W7       0.540900
     12 N3           1.5850     2.6260     0.9340 ns         1 0W7      -0.413400
     13 C4           2.7640     2.1610     1.3730 c          1 0W7       0.582200
     14 O18          3.4950     2.7940     2.1120 o          1 0W7      -0.559000
     15 C5           3.0520     0.8440     0.8680 cc         1 0W7      -0.481200
     16 N1           1.0130     0.7220    -0.3680 nd         1 0W7      -0.702300
     17 C6           2.2120     0.1570     0.0330 cd         1 0W7       0.450600
     18 N7           2.4660    -1.1260    -0.4550 nh         1 0W7      -0.651400
     19 C8           1.9160    -1.5880    -1.7780 c6         1 0W7       0.179300
     20 C12          3.6210    -1.9400     0.0510 c6         1 0W7       0.179300
     21 C11          3.4010    -3.4700    -0.1250 c6         1 0W7       0.141100
     22 O10          3.0100    -3.7840    -1.4800 os         1 0W7      -0.443000
     23 C9           1.7760    -3.1350    -1.8600 c6         1 0W7       0.141100
     24 H1          -2.1350     0.9560    -1.0600 hn         1 0W7       0.151000
     25 H2          -3.8890     1.2750     2.2560 ha         1 0W7       0.127500
     26 H3          -5.8730    -0.0800     2.7900 ha         1 0W7       0.114500
     27 H4          -3.6160    -0.6690    -1.6110 ha         1 0W7       0.127500
     28 H5          -5.6200    -2.0220    -1.0550 ha         1 0W7       0.114500
     29 H6          -6.7530    -1.7330     1.1470 ha         1 0W7       0.116000
     30 H7          -0.6880     2.4690    -1.3250 hc         1 0W7       0.084700
     31 H8          -0.4180     3.7060    -0.0620 hc         1 0W7       0.084700
     32 H9           1.3180     3.5440     1.2550 hn         1 0W7       0.330500
     33 H10          4.0000     0.4430     1.1930 ha         1 0W7       0.213000
     34 H11          0.9270    -1.1570    -1.9830 h1         1 0W7       0.061950
     35 H12          2.5800    -1.2520    -2.5880 h1         1 0W7       0.061950
     36 H13          4.5410    -1.6480    -0.4770 h1         1 0W7       0.061950
     37 H14          3.7880    -1.7530     1.1210 h1         1 0W7       0.061950
     38 H15          4.3270    -4.0090     0.1180 h1         1 0W7       0.057450
     39 H16          2.6180    -3.8150     0.5660 h1         1 0W7       0.057450
     40 H17          0.9700    -3.4720    -1.1930 h1         1 0W7       0.057450
     41 H18          1.5140    -3.4310    -2.8850 h1         1 0W7       0.057450
@<TRIPOS>BOND
     1     1     2 2   
     2     2     3 1   
     3     2    10 1   
     4     3     4 1   
     5     3    24 1   
     6     4     5 ar  
     7     4     7 ar  
     8     5     6 ar  
     9     5    25 1   
    10     6     9 ar  
    11     6    26 1   
    12     7     8 ar  
    13     7    27 1   
    14     8     9 ar  
    15     8    28 1   
    16     9    29 1   
    17    10    11 1   
    18    10    30 1   
    19    10    31 1   
    20    11    12 1   
    21    11    16 2   
    22    12    13 1   
    23    12    32 1   
    24    13    14 2   
    25    13    15 1   
    26    15    17 2   
    27    15    33 1   
    28    16    17 1   
    29    17    18 1   
    30    18    19 1   
    31    18    20 1   
    32    19    23 1   
    33    19    34 1   
    34    19    35 1   
    35    20    21 1   
    36    20    36 1   
    37    20    37 1   
    38    21    22 1   
    39    21    38 1   
    40    21    39 1   
    41    22    23 1   
    42    23    40 1   
    43    23    41 1   
@<TRIPOS>SUBSTRUCTURE
     1 0W7         1 TEMP              0 ****  ****    0 ROOT
