@<TRIPOS>MOLECULE
0W7
   41    43     1     0     0
SMALL
bcc


@<TRIPOS>ATOM
      1 O17         -1.6650     1.5270     2.1300 o          1 0W7      -0.567100
      2 C14         -1.5290     1.8130     0.9560 c          1 0W7       0.699100
      3 N15         -2.2580     1.2970    -0.0580 ns         1 0W7      -0.459100
      4 C16         -3.2550     0.3160    -0.0280 ca         1 0W7       0.071600
      5 C19         -3.6590    -0.3650     1.1210 ca         1 0W7      -0.168000
      6 C20         -4.6560    -1.3290     1.0300 ca         1 0W7      -0.101500
      7 C23         -3.8650     0.0130    -1.2480 ca         1 0W7      -0.168000
      8 C22         -4.8580    -0.9490    -1.3230 ca         1 0W7      -0.101500
      9 C21         -5.2620    -1.6290    -0.1810 ca         1 0W7      -0.153000
     10 C13         -0.4740     2.8120     0.5120 c3         1 0W7      -0.214700
     11 C2           0.8650     2.1390     0.4440 cc         1 0W7       0.540900
     12 N3           1.9530     2.8970     0.6430 ns         1 0W7      -0.480400
     13 C4           3.2560     2.3950     0.5450 c          1 0W7       0.724700
     14 O18          4.2060     3.1530     0.7140 o          1 0W7      -0.634500
     15 C5           3.3080     1.0100     0.2390 cc         1 0W7      -0.431200
     16 N1           0.9170     0.8800     0.1740 nd         1 0W7      -0.702300
     17 C6           2.1420     0.2820     0.0800 cd         1 0W7       0.450600
     18 N7           2.1080    -1.0500    -0.1630 nh         1 0W7      -0.651400
     19 C8           0.9220    -1.6770    -0.7330 c6         1 0W7       0.179300
     20 C12          3.3280    -1.8050    -0.3720 c6         1 0W7       0.179300
     21 C11          3.1230    -3.2590     0.0180 c6         1 0W7       0.117900
     22 O10          2.0150    -3.8340    -0.6330 os         1 0W7      -0.396600
     23 C9           0.8400    -3.1280    -0.3060 c6         1 0W7       0.117900
     24 H1          -2.0290     1.6320    -0.9810 hn         1 0W7       0.317500
     25 H2          -3.2100    -0.1580     2.0780 ha         1 0W7       0.145500
     26 H3          -4.9570    -1.8520     1.9290 ha         1 0W7       0.132500
     27 H4          -3.5590     0.5390    -2.1460 ha         1 0W7       0.145500
     28 H5          -5.3160    -1.1640    -2.2790 ha         1 0W7       0.132500
     29 H6          -6.0380    -2.3800    -0.2350 ha         1 0W7       0.134000
     30 H7          -0.6940     3.2410    -0.4690 hc         1 0W7       0.084700
     31 H8          -0.4530     3.6370     1.2250 hc         1 0W7       0.084700
     32 H9           1.8470     3.8820     0.8510 hn         1 0W7       0.330500
     33 H10          4.2880     0.5730     0.1240 ha         1 0W7       0.163000
     34 H11          0.0320    -1.1510    -0.3990 h1         1 0W7       0.061950
     35 H12          0.9580    -1.6120    -1.8270 h1         1 0W7       0.061950
     36 H13          3.6540    -1.7290    -1.4170 h1         1 0W7       0.061950
     37 H14          4.1300    -1.4120     0.2520 h1         1 0W7       0.061950
     38 H15          4.0070    -3.8330    -0.2610 h1         1 0W7       0.057450
     39 H16          3.0040    -3.3260     1.1080 h1         1 0W7       0.057450
     40 H17          0.6470    -3.1830     0.7750 h1         1 0W7       0.057450
     41 H18          0.0080    -3.6110    -0.8220 h1         1 0W7       0.057450
@<TRIPOS>BOND
     1     1     2 2   
     2     2     3 1   
     3     2    10 1   
     4     3     4 1   
     5     3    24 1   
     6     4     5 ar  
     7     4     7 ar  
     8     5     6 ar  
     9     5    25 1   
    10     6     9 ar  
    11     6    26 1   
    12     7     8 ar  
    13     7    27 1   
    14     8     9 ar  
    15     8    28 1   
    16     9    29 1   
    17    10    11 1   
    18    10    30 1   
    19    10    31 1   
    20    11    12 1   
    21    11    16 2   
    22    12    13 1   
    23    12    32 1   
    24    13    14 2   
    25    13    15 1   
    26    15    17 2   
    27    15    33 1   
    28    16    17 1   
    29    17    18 1   
    30    18    19 1   
    31    18    20 1   
    32    19    23 1   
    33    19    34 1   
    34    19    35 1   
    35    20    21 1   
    36    20    36 1   
    37    20    37 1   
    38    21    22 1   
    39    21    38 1   
    40    21    39 1   
    41    22    23 1   
    42    23    40 1   
    43    23    41 1   
@<TRIPOS>SUBSTRUCTURE
     1 0W7         1 TEMP              0 ****  ****    0 ROOT
