@<TRIPOS>MOLECULE
0W8
   22    23     1     0     0
SMALL
bcc


@<TRIPOS>ATOM
      1 O           -2.4670    -1.5880    -0.1180 o          1 0W8      -0.641500
      2 C8          -1.3430    -1.1180    -0.0970 c          1 0W8       0.801500
      3 N           -0.9990     0.2020    -0.2820 n          1 0W8      -0.362000
      4 C1          -1.9590     1.2700    -0.4500 c3         1 0W8       0.121000
      5 C           -2.3760     1.8970     0.8710 c3         1 0W8      -0.117100
      6 N1          -0.1630    -1.7860     0.1100 ns         1 0W8      -0.457100
      7 C7           0.9040    -0.9160     0.0760 ca         1 0W8       0.003600
      8 C2           0.3670     0.3550    -0.1640 ca         1 0W8       0.004600
      9 C6           2.2630    -1.1080     0.2280 ca         1 0W8      -0.129000
     10 C5           3.0830     0.0150     0.1340 ca         1 0W8      -0.128000
     11 C4           2.5510     1.2790    -0.1020 ca         1 0W8      -0.129000
     12 C3           1.1790     1.4700    -0.2540 ca         1 0W8      -0.127000
     13 H3          -1.5150     2.0180    -1.1080 h1         1 0W8       0.060700
     14 H4          -2.8250     0.8660    -0.9730 h1         1 0W8       0.060700
     15 H2          -2.8630     1.1660     1.5160 hc         1 0W8       0.045700
     16 H           -1.5180     2.3070     1.4050 hc         1 0W8       0.045700
     17 H1          -3.0790     2.7100     0.6920 hc         1 0W8       0.045700
     18 H9          -0.1120    -2.7810     0.2560 hn         1 0W8       0.353500
     19 H5           2.6750    -2.0900     0.4130 ha         1 0W8       0.139000
     20 H6           4.1520    -0.1020     0.2460 ha         1 0W8       0.134000
     21 H7           3.2130     2.1320    -0.1690 ha         1 0W8       0.134000
     22 H8           0.7730     2.4550    -0.4400 ha         1 0W8       0.140000
@<TRIPOS>BOND
     1     1     2 2   
     2     2     3 1   
     3     2     6 1   
     4     3     4 1   
     5     3     8 1   
     6     4     5 1   
     7     4    13 1   
     8     4    14 1   
     9     5    15 1   
    10     5    16 1   
    11     5    17 1   
    12     6     7 1   
    13     6    18 1   
    14     7     8 ar  
    15     7     9 ar  
    16     8    12 ar  
    17     9    10 ar  
    18     9    19 1   
    19    10    11 ar  
    20    10    20 1   
    21    11    12 ar  
    22    11    21 1   
    23    12    22 1   
@<TRIPOS>SUBSTRUCTURE
     1 0W8         1 TEMP              0 ****  ****    0 ROOT
