@<TRIPOS>MOLECULE
0W8
   22    23     1     0     0
SMALL
No Charge or Current Charge


@<TRIPOS>ATOM
      1 O           -2.4680    -1.7340    -0.3280 o          1 0W8      -0.566000
      2 C8          -1.3750    -1.2010    -0.2300 c          1 0W8       0.592000
      3 N           -1.0440     0.1610    -0.3410 n          1 0W8      -0.295000
      4 C1          -2.0380     1.2420    -0.4490 c3         1 0W8       0.121000
      5 C           -2.2850     1.9660     0.8870 c3         1 0W8      -0.117100
      6 N1          -0.1780    -1.8010     0.0420 ns         1 0W8      -0.503600
      7 C7           0.8920    -0.9030     0.1140 ca         1 0W8       0.003600
      8 C2           0.3490     0.3530    -0.0950 ca         1 0W8       0.004600
      9 C6           2.2630    -1.1090     0.2900 ca         1 0W8      -0.111000
     10 C5           3.1000     0.0270     0.2150 ca         1 0W8      -0.110000
     11 C4           2.5570     1.3090    -0.0620 ca         1 0W8      -0.111000
     12 C3           1.1660     1.4800    -0.2470 ca         1 0W8      -0.109000
     13 H3          -1.6850     1.9670    -1.1940 h1         1 0W8       0.060700
     14 H4          -2.9850     0.8270    -0.8160 h1         1 0W8       0.060700
     15 H2          -2.6520     1.2630     1.6430 hc         1 0W8       0.045700
     16 H           -1.3600     2.4240     1.2580 hc         1 0W8       0.045700
     17 H1          -3.0330     2.7570     0.7580 hc         1 0W8       0.045700
     18 H9          -0.0940    -2.8040     0.1770 hn         1 0W8       0.467000
     19 H5           2.6700    -2.1030     0.4590 ha         1 0W8       0.121000
     20 H6           4.1740    -0.0870     0.3440 ha         1 0W8       0.116000
     21 H7           3.2200     2.1670    -0.1470 ha         1 0W8       0.116000
     22 H8           0.7460     2.4530    -0.4900 ha         1 0W8       0.122000
@<TRIPOS>BOND
     1     1     2 2   
     2     2     3 1   
     3     2     6 1   
     4     3     4 1   
     5     3     8 1   
     6     4     5 1   
     7     4    13 1   
     8     4    14 1   
     9     5    15 1   
    10     5    16 1   
    11     5    17 1   
    12     6     7 1   
    13     6    18 1   
    14     7     8 ar  
    15     7     9 ar  
    16     8    12 ar  
    17     9    10 ar  
    18     9    19 1   
    19    10    11 ar  
    20    10    20 1   
    21    11    12 ar  
    22    11    21 1   
    23    12    22 1   
@<TRIPOS>SUBSTRUCTURE
     1 0W8         1 TEMP              0 ****  ****    0 ROOT
