@<TRIPOS>MOLECULE
0WA
   30    32     1     0     0
SMALL
bcc


@<TRIPOS>ATOM
      1 C4          -5.0550     0.3010     0.0140 ca         1 0WA      -0.118000
      2 C5          -4.2180     0.8730    -0.9270 ca         1 0WA       0.100900
      3 C7          -2.9340     0.4160    -1.1230 ca         1 0WA      -0.133000
      4 C8          -2.4730    -0.6450    -0.3500 ca         1 0WA       0.017600
      5 C10         -0.0840    -0.4390    -0.0540 cc         1 0WA       0.686300
      6 C13          1.4100     1.1030     1.0570 cc         1 0WA      -0.208400
      7 C15          3.4450     0.0040     0.0730 ca         1 0WA      -0.080500
      8 C17          5.7200     0.6900     0.3820 ca         1 0WA       0.392700
      9 C20          3.9480    -1.0440    -0.6950 ca         1 0WA      -0.225300
     10 C2          -3.2980    -1.2380     0.6080 ca         1 0WA       0.158100
     11 C3          -4.5940    -0.7560     0.7800 ca         1 0WA      -0.143000
     12 F6          -4.6710     1.8980    -1.6700 f          1 0WA      -0.137900
     13 N9          -1.1580    -1.1520    -0.4940 nu         1 0WA      -0.757300
     14 N11          1.1440    -0.7140    -0.3410 nd         1 0WA      -0.714000
     15 C12          2.0030     0.1550     0.2830 cd         1 0WA       0.436800
     16 S14         -0.3020     0.9260     1.0060 ss         1 0WA      -0.191300
     17 C16          4.3720     0.8900     0.6210 ca         1 0WA      -0.225300
     18 N18          6.2010    -0.3110    -0.3500 nb         1 0WA      -0.660000
     19 C19          5.3180    -1.1540    -0.8720 ca         1 0WA       0.392700
     20 H1          -6.0620     0.6730     0.1500 ha         1 0WA       0.157000
     21 H2          -2.2890     0.8690    -1.8650 ha         1 0WA       0.160000
     22 H3           1.8620     1.8900     1.6380 h4         1 0WA       0.182000
     23 H4           6.4470     1.3770     0.8010 h4         1 0WA       0.018600
     24 H5           3.2860    -1.7670    -1.1510 ha         1 0WA       0.149000
     25 H6          -1.9760    -2.4970     1.1080 ho         1 0WA       0.448000
     26 H7          -5.2410    -1.2120     1.5180 ha         1 0WA       0.158000
     27 H8          -0.9720    -1.7710    -1.2720 hn         1 0WA       0.450800
     28 H9           4.0650     1.7340     1.2240 ha         1 0WA       0.149000
     29 H10          5.7180    -1.9670    -1.4680 h4         1 0WA       0.018600
     30 O1          -2.8780    -2.2600     1.3680 oh         1 0WA      -0.481100
@<TRIPOS>BOND
     1     1     2 ar  
     2     1    11 ar  
     3     1    20 1   
     4     2     3 ar  
     5     2    12 1   
     6     3     4 ar  
     7     3    21 1   
     8     4    10 ar  
     9     4    13 1   
    10     5    13 1   
    11     5    14 2   
    12     5    16 1   
    13     6    15 2   
    14     6    16 1   
    15     6    22 1   
    16     7     9 ar  
    17     7    15 1   
    18     7    17 ar  
    19     8    17 ar  
    20     8    18 ar  
    21     8    23 1   
    22     9    19 ar  
    23     9    24 1   
    24    10    11 ar  
    25    10    30 1   
    26    11    26 1   
    27    13    27 1   
    28    14    15 1   
    29    17    28 1   
    30    18    19 ar  
    31    19    29 1   
    32    25    30 1   
@<TRIPOS>SUBSTRUCTURE
     1 0WA         1 TEMP              0 ****  ****    0 ROOT
