@<TRIPOS>MOLECULE
0WA
   30    32     1     0     0
SMALL
No Charge or Current Charge


@<TRIPOS>ATOM
      1 C4          -5.2550     0.1120    -0.2050 ca         1 0WA      -0.100000
      2 C5          -4.4930     0.4700    -1.3290 ca         1 0WA       0.136000
      3 C7          -3.1290     0.1440    -1.4020 ca         1 0WA      -0.115000
      4 C8          -2.5140    -0.5400    -0.3400 ca         1 0WA       0.156000
      5 C10         -0.0830    -0.2720     0.2030 cc         1 0WA       0.686300
      6 C13          1.5760     0.9130     1.4580 cc         1 0WA      -0.270000
      7 C15          3.4990    -0.0380     0.1020 ca         1 0WA      -0.080500
      8 C17          5.8600     0.4610     0.4570 ca         1 0WA       0.327400
      9 C20          3.9230    -0.8740    -0.9560 ca         1 0WA      -0.142000
     10 C2          -3.2860    -0.9140     0.7870 ca         1 0WA       0.158100
     11 C3          -4.6500    -0.5860     0.8570 ca         1 0WA      -0.125000
     12 F6          -5.0780     1.1360    -2.3490 f          1 0WA      -0.173000
     13 N9          -1.1460    -0.8450    -0.4120 nu         1 0WA      -0.950900
     14 N11          1.0920    -0.5630    -0.2830 nd         1 0WA      -0.714000
     15 C12          2.0640     0.1160     0.4410 cd         1 0WA       0.371500
     16 S14         -0.1610     0.8390     1.5430 ss         1 0WA      -0.046400
     17 C16          4.5120     0.6390     0.8160 ca         1 0WA      -0.142000
     18 N18          6.2540    -0.3420    -0.5570 nb         1 0WA      -0.660000
     19 C19          5.2920    -0.9950    -1.2470 ca         1 0WA       0.327400
     20 H1          -6.3110     0.3700    -0.1600 ha         1 0WA       0.139000
     21 H2          -2.5520     0.4350    -2.2750 ha         1 0WA       0.142000
     22 H3           2.1150     1.5350     2.1570 h4         1 0WA       0.164000
     23 H4           6.6500     0.9780     1.0010 h4         1 0WA       0.018600
     24 H5           3.2080    -1.4300    -1.5550 ha         1 0WA       0.131000
     25 H6          -1.8010    -1.8440     1.4620 ho         1 0WA       0.487000
     26 H7          -5.2360    -0.8790     1.7240 ha         1 0WA       0.140000
     27 H8          -0.8200    -1.1920    -1.3120 hn         1 0WA       0.506000
     28 H9           4.2780     1.3010     1.6440 ha         1 0WA       0.131000
     29 H10          5.6300    -1.6360    -2.0610 h4         1 0WA       0.018600
     30 O1          -2.7030    -1.6310     1.7900 oh         1 0WA      -0.520100
@<TRIPOS>BOND
     1     1     2 ar  
     2     1    11 ar  
     3     1    20 1   
     4     2     3 ar  
     5     2    12 1   
     6     3     4 ar  
     7     3    21 1   
     8     4    10 ar  
     9     4    13 1   
    10     5    13 1   
    11     5    14 2   
    12     5    16 1   
    13     6    15 2   
    14     6    16 1   
    15     6    22 1   
    16     7     9 ar  
    17     7    15 1   
    18     7    17 ar  
    19     8    17 ar  
    20     8    18 ar  
    21     8    23 1   
    22     9    19 ar  
    23     9    24 1   
    24    10    11 ar  
    25    10    30 1   
    26    11    26 1   
    27    13    27 1   
    28    14    15 1   
    29    17    28 1   
    30    18    19 ar  
    31    19    29 1   
    32    25    30 1   
@<TRIPOS>SUBSTRUCTURE
     1 0WA         1 TEMP              0 ****  ****    0 ROOT
