@<TRIPOS>MOLECULE
0WB
   32    34     1     0     0
SMALL
bcc


@<TRIPOS>ATOM
      1 C7          -3.4200     0.0850     1.2270 ca         1 0WB      -0.131000
      2 C2          -3.6560    -1.2280    -0.7950 ca         1 0WB       0.158100
      3 C10         -0.5370    -0.2520    -0.0860 cc         1 0WB       0.689300
      4 C4          -5.5470    -0.0300     0.1000 ca         1 0WB      -0.117000
      5 O1          -3.1550    -2.0350    -1.7410 oh         1 0WB      -0.481100
      6 C3          -4.9980    -0.8590    -0.8630 ca         1 0WB      -0.144000
      7 C5          -4.7500     0.4260     1.1340 ca         1 0WB       0.099900
      8 F6          -5.2920     1.2250     2.0700 f          1 0WB      -0.138900
      9 C8          -2.8720    -0.7490     0.2570 ca         1 0WB       0.018600
     10 N9          -1.5080    -1.1260     0.2940 nu         1 0WB      -0.760300
     11 N11          0.7280    -0.4310     0.1060 nd         1 0WB      -0.720000
     12 C12          1.4590     0.6010    -0.4270 cd         1 0WB       0.443800
     13 C13          0.7310     1.5740    -1.0350 cc         1 0WB      -0.215400
     14 S14         -0.9510     1.2100    -0.9350 ss         1 0WB      -0.193300
     15 C15          2.9210     0.5740    -0.2990 ca         1 0WB      -0.121500
     16 C16          3.5390    -0.4830     0.3620 ca         1 0WB      -0.058000
     17 C17          4.9250    -0.5100     0.4910 ca         1 0WB      -0.025000
     18 C18          5.7180     0.5080    -0.0340 ca         1 0WB      -0.084000
     19 C19          5.1000     1.5590    -0.6930 ca         1 0WB      -0.137000
     20 C20          3.7210     1.5920    -0.8240 ca         1 0WB      -0.095000
     21 C21          5.5410    -1.6010     1.1770 cg         1 0WB       0.235800
     22 N22          6.0390    -2.4780     1.7350 n1         1 0WB      -0.364800
     23 H1          -2.8060     0.4530     2.0400 ha         1 0WB       0.160000
     24 H2          -6.5890     0.2530     0.0450 ha         1 0WB       0.157000
     25 H3          -2.2360    -2.2500    -1.5240 ho         1 0WB       0.448000
     26 H4          -5.6140    -1.2280    -1.6730 ha         1 0WB       0.158000
     27 H5          -1.2160    -1.8300     0.9600 hn         1 0WB       0.453800
     28 H6           1.0660     2.4770    -1.5190 h4         1 0WB       0.180000
     29 H7           2.9440    -1.2850     0.7770 ha         1 0WB       0.164000
     30 H8           6.7930     0.4770     0.0730 ha         1 0WB       0.145000
     31 H9           5.6970     2.3590    -1.1080 ha         1 0WB       0.139000
     32 H10          3.2680     2.4280    -1.3400 ha         1 0WB       0.134000
@<TRIPOS>BOND
     1     1     7 ar  
     2     1     9 ar  
     3     1    23 1   
     4     2     5 1   
     5     2     6 ar  
     6     2     9 ar  
     7     3    10 1   
     8     3    11 2   
     9     3    14 1   
    10     4     6 ar  
    11     4     7 ar  
    12     4    24 1   
    13     5    25 1   
    14     6    26 1   
    15     7     8 1   
    16     9    10 1   
    17    10    27 1   
    18    11    12 1   
    19    12    13 2   
    20    12    15 1   
    21    13    14 1   
    22    13    28 1   
    23    15    16 ar  
    24    15    20 ar  
    25    16    17 ar  
    26    16    29 1   
    27    17    18 ar  
    28    17    21 1   
    29    18    19 ar  
    30    18    30 1   
    31    19    20 ar  
    32    19    31 1   
    33    20    32 1   
    34    21    22 3   
@<TRIPOS>SUBSTRUCTURE
     1 0WB         1 TEMP              0 ****  ****    0 ROOT
