@<TRIPOS>MOLECULE
0WB
   32    34     1     0     0
SMALL
No Charge or Current Charge


@<TRIPOS>ATOM
      1 C7          -3.5170    -0.2390     1.4330 ca         1 0WB      -0.113000
      2 C2          -3.7190    -0.9070    -0.9010 ca         1 0WB       0.158100
      3 C10         -0.5610    -0.0410    -0.3680 cc         1 0WB       0.689300
      4 C4          -5.7060    -0.2860     0.3560 ca         1 0WB      -0.099000
      5 O1          -3.1400    -1.3700    -2.0460 oh         1 0WB      -0.520100
      6 C3          -5.1100    -0.7190    -0.8430 ca         1 0WB      -0.126000
      7 C5          -4.9080    -0.0530     1.4880 ca         1 0WB       0.135000
      8 F6          -5.4830     0.3580     2.6400 f          1 0WB      -0.174000
      9 C8          -2.9120    -0.6570     0.2360 ca         1 0WB       0.157000
     10 N9          -1.5200    -0.8230     0.1820 nu         1 0WB      -0.953900
     11 N11          0.6660    -0.2860     0.0010 nd         1 0WB      -0.720000
     12 C12          1.5200     0.6080    -0.6320 cd         1 0WB       0.378500
     13 C13          0.8910     1.5150    -1.4630 cc         1 0WB      -0.277000
     14 S14         -0.8330     1.2730    -1.4780 ss         1 0WB      -0.048400
     15 C15          2.9820     0.5470    -0.3920 ca         1 0WB      -0.121500
     16 C16          3.5290    -0.4240     0.4810 ca         1 0WB      -0.040000
     17 C17          4.9170    -0.4880     0.7140 ca         1 0WB      -0.025000
     18 C18          5.7760     0.4210     0.0730 ca         1 0WB      -0.066000
     19 C19          5.2480     1.3880    -0.7950 ca         1 0WB      -0.119000
     20 C20          3.8630     1.4520    -1.0270 ca         1 0WB      -0.077000
     21 C21          5.4530    -1.4810     1.6040 cg         1 0WB       0.325000
     22 N22          5.8790    -2.2910     2.3290 n1         1 0WB      -0.454000
     23 H1          -2.9130    -0.0470     2.3150 ha         1 0WB       0.142000
     24 H2          -6.7820    -0.1390     0.4110 ha         1 0WB       0.139000
     25 H3          -2.2010    -1.5390    -1.8060 ho         1 0WB       0.487000
     26 H4          -5.7220    -0.9150    -1.7190 ha         1 0WB       0.140000
     27 H5          -1.1010    -1.2860     0.9870 hn         1 0WB       0.509000
     28 H6           1.3180     2.3050    -2.0630 h4         1 0WB       0.162000
     29 H7           2.8780    -1.1360     0.9860 ha         1 0WB       0.146000
     30 H8           6.8500     0.3800     0.2460 ha         1 0WB       0.127000
     31 H9           5.9130     2.0920    -1.2910 ha         1 0WB       0.121000
     32 H10          3.4880     2.2140    -1.7050 ha         1 0WB       0.116000
@<TRIPOS>BOND
     1     1     7 ar  
     2     1     9 ar  
     3     1    23 1   
     4     2     5 1   
     5     2     6 ar  
     6     2     9 ar  
     7     3    10 1   
     8     3    11 2   
     9     3    14 1   
    10     4     6 ar  
    11     4     7 ar  
    12     4    24 1   
    13     5    25 1   
    14     6    26 1   
    15     7     8 1   
    16     9    10 1   
    17    10    27 1   
    18    11    12 1   
    19    12    13 2   
    20    12    15 1   
    21    13    14 1   
    22    13    28 1   
    23    15    16 ar  
    24    15    20 ar  
    25    16    17 ar  
    26    16    29 1   
    27    17    18 ar  
    28    17    21 1   
    29    18    19 ar  
    30    18    30 1   
    31    19    20 ar  
    32    19    31 1   
    33    20    32 1   
    34    21    22 3   
@<TRIPOS>SUBSTRUCTURE
     1 0WB         1 TEMP              0 ****  ****    0 ROOT
