@<TRIPOS>MOLECULE
0WC
   43    46     1     0     0
SMALL
No Charge or Current Charge


@<TRIPOS>ATOM
      1 C4          27.6520    56.7170     2.8530 c1         1 0WC      -0.157100
      2 C5          28.1480    55.7420     3.3820 cg         1 0WC      -0.079000
      3 C6          28.7320    54.6000     4.0220 ca         1 0WC       0.040000
      4 C7          29.1900    53.5100     3.2480 ca         1 0WC      -0.107000
      5 C8          29.7730    52.3890     3.8710 ca         1 0WC      -0.076000
      6 C10         30.4780    51.2740     6.1290 c5         1 0WC      -0.045100
      7 N12         29.6660    53.1820     7.3730 nh         1 0WC      -0.803100
      8 C13         29.4270    53.4360     6.0240 ca         1 0WC       0.299000
      9 C15         29.0360    53.8740     8.4330 ca         1 0WC       0.446900
     10 C17         27.0990    54.7200     9.2920 ca         1 0WC       0.404900
     11 C20         28.9590    54.9530    10.5840 ca         1 0WC       0.178900
     12 C21         29.7190    54.2990     9.6000 ca         1 0WC      -0.103000
     13 C26         25.0760    59.7750     5.1090 cc         1 0WC      -0.268000
     14 C1          28.1710    58.8760     1.7770 c3         1 0WC      -0.084100
     15 C2          27.0530    57.9250     2.2650 c3         1 0WC       0.258800
     16 O3          26.3100    57.5200     1.1050 oh         1 0WC      -0.645000
     17 C9          29.8850    52.3760     5.2710 ca         1 0WC      -0.127300
     18 C11         30.4000    51.8940     7.5870 c5         1 0WC       0.232800
     19 C14         28.8540    54.5680     5.4250 ca         1 0WC      -0.087000
     20 N16         27.7130    54.0880     8.2880 nb         1 0WC      -0.313000
     21 N18         25.7730    54.9280     9.1340 nv         1 0WC      -1.055900
     22 N19         27.6370    55.1660    10.4330 nb         1 0WC      -0.258000
     23 Cl          31.4580    54.0890     9.8450 cl         1 0WC      -0.193000
     24 C23         26.1180    58.6370     3.2490 cc         1 0WC       0.389700
     25 N24         24.8330    58.8730     2.9770 nd         1 0WC      -0.658000
     26 C25         24.2380    59.5270     4.0480 cd         1 0WC       0.285900
     27 S27         26.6860    59.1870     4.8080 ss         1 0WC       0.000600
     28 H1          29.0980    53.5340     2.1640 ha         1 0WC       0.126000
     29 H2          30.1310    51.5490     3.2790 ha         1 0WC       0.119000
     30 H3          29.8970    50.3490     6.0600 hc         1 0WC       0.064700
     31 H4          31.5100    51.0360     5.8490 hc         1 0WC       0.064700
     32 H5          29.4130    55.3170    11.5050 h4         1 0WC       0.034100
     33 H6          24.8470    60.2660     6.0450 h4         1 0WC       0.162000
     34 H7          28.8130    59.1900     2.6090 hc         1 0WC       0.056367
     35 H8          28.8050    58.3870     1.0270 hc         1 0WC       0.056367
     36 H9          27.7410    59.7770     1.3230 hc         1 0WC       0.056367
     37 H10         25.3930    57.8360     1.2890 ho         1 0WC       0.477000
     38 H11         29.8610    51.2220     8.2700 h1         1 0WC       0.064200
     39 H12         31.4100    52.0580     7.9850 h1         1 0WC       0.064200
     40 H13         28.5180    55.4040     6.0300 ha         1 0WC       0.142000
     41 H14         25.2900    54.4140     8.4010 hn         1 0WC       0.496500
     42 H15         25.2210    55.1930     9.9460 hn         1 0WC       0.496500
     43 H16         23.1900    59.7970     3.9960 h4         1 0WC       0.045100
@<TRIPOS>BOND
     1     1     2 3   
     2     1    15 1   
     3     2     3 1   
     4     3     4 ar  
     5     3    19 ar  
     6     4     5 ar  
     7     4    28 1   
     8     5    17 ar  
     9     5    29 1   
    10     6    17 1   
    11     6    18 1   
    12     6    30 1   
    13     6    31 1   
    14     7     8 1   
    15     7     9 1   
    16     7    18 1   
    17     8    17 ar  
    18     8    19 ar  
    19     9    12 ar  
    20     9    20 ar  
    21    10    20 ar  
    22    10    21 1   
    23    10    22 ar  
    24    11    12 ar  
    25    11    22 ar  
    26    11    32 1   
    27    12    23 1   
    28    13    26 2   
    29    13    27 1   
    30    13    33 1   
    31    14    15 1   
    32    14    34 1   
    33    14    35 1   
    34    14    36 1   
    35    15    16 1   
    36    15    24 1   
    37    16    37 1   
    38    18    38 1   
    39    18    39 1   
    40    19    40 1   
    41    21    41 1   
    42    21    42 1   
    43    24    25 2   
    44    24    27 1   
    45    25    26 1   
    46    26    43 1   
@<TRIPOS>SUBSTRUCTURE
     1 0WC         1 TEMP              0 ****  ****    0 ROOT
