@<TRIPOS>MOLECULE
0WC
   43    46     1     0     0
SMALL
abcg2


@<TRIPOS>ATOM
      1 C4          27.8360    56.8840     2.9280 c1         1 0WC      -0.157100
      2 C5          28.2470    55.8590     3.4110 cg         1 0WC      -0.079000
      3 C6          28.7170    54.6570     4.0160 ca         1 0WC       0.040000
      4 C7          28.9380    53.5080     3.2440 ca         1 0WC      -0.107000
      5 C8          29.3810    52.3350     3.8480 ca         1 0WC      -0.076000
      6 C10         30.0350    51.1810     6.1060 c5         1 0WC      -0.045100
      7 N12         29.7140    53.2090     7.3300 nh         1 0WC      -0.803100
      8 C13         29.3720    53.4550     5.9850 ca         1 0WC       0.299000
      9 C15         29.2100    53.8870     8.4060 ca         1 0WC       0.446900
     10 C17         27.5640    55.2720     9.2400 ca         1 0WC       0.404900
     11 C20         29.1370    54.5610    10.6980 ca         1 0WC       0.178900
     12 C21         29.7940    53.8750     9.6940 ca         1 0WC      -0.103000
     13 C26         24.3330    59.0680     4.8080 cc         1 0WC      -0.268000
     14 C1          28.3410    59.2610     2.4720 c3         1 0WC      -0.084100
     15 C2          27.2970    58.1460     2.3880 c3         1 0WC       0.258800
     16 O3          26.9410    57.9950     1.0160 oh         1 0WC      -0.645000
     17 C9          29.5960    52.3100     5.2150 ca         1 0WC      -0.127300
     18 C11         30.4150    51.8990     7.4140 c5         1 0WC       0.232800
     19 C14         28.9430    54.6370     5.4020 ca         1 0WC      -0.087000
     20 N16         28.0990    54.6050     8.2130 nb         1 0WC      -0.313000
     21 N18         26.4790    56.0440     8.9770 nv         1 0WC      -1.055900
     22 N19         28.0190    55.2570    10.5060 nb         1 0WC      -0.258000
     23 CL          31.3470    53.1670    10.0650 cl         1 0WC      -0.193000
     24 C23         26.0390    58.4830     3.1820 cc         1 0WC       0.389700
     25 N24         24.8490    58.2380     2.7180 nd         1 0WC      -0.658000
     26 C25         23.8740    58.5690     3.6290 cd         1 0WC       0.285900
     27 S27         26.0530    59.1360     4.7850 ss         1 0WC       0.000600
     28 H1          28.7600    53.5410     2.1770 ha         1 0WC       0.126000
     29 H2          29.5520    51.4470     3.2510 ha         1 0WC       0.119000
     30 H3          29.2090    50.4830     6.2670 hc         1 0WC       0.064700
     31 H4          30.8740    50.6170     5.7010 hc         1 0WC       0.064700
     32 H5          29.5520    54.5590    11.7000 h4         1 0WC       0.034100
     33 H6          23.7710    59.4000     5.6660 h4         1 0WC       0.162000
     34 H7          28.6810    59.3970     3.4990 hc         1 0WC       0.056367
     35 H8          29.1980    58.9940     1.8550 hc         1 0WC       0.056367
     36 H9          27.9050    60.1920     2.1080 hc         1 0WC       0.056367
     37 H10         26.0260    57.6710     0.9940 ho         1 0WC       0.477000
     38 H11         30.0900    51.3600     8.2980 h1         1 0WC       0.064200
     39 H12         31.4910    52.0560     7.4700 h1         1 0WC       0.064200
     40 H13         28.7710    55.5250     5.9880 ha         1 0WC       0.142000
     41 H14         26.0010    55.9110     8.1020 hn         1 0WC       0.496500
     42 H15         25.9380    56.3780     9.7580 hn         1 0WC       0.496500
     43 H16         22.8340    58.4250     3.3750 h4         1 0WC       0.045100
@<TRIPOS>BOND
     1     1     2 3   
     2     1    15 1   
     3     2     3 1   
     4     3     4 ar  
     5     3    19 ar  
     6     4     5 ar  
     7     4    28 1   
     8     5    17 ar  
     9     5    29 1   
    10     6    17 1   
    11     6    18 1   
    12     6    30 1   
    13     6    31 1   
    14     7     8 1   
    15     7     9 1   
    16     7    18 1   
    17     8    17 ar  
    18     8    19 ar  
    19     9    12 ar  
    20     9    20 ar  
    21    10    20 ar  
    22    10    21 1   
    23    10    22 ar  
    24    11    12 ar  
    25    11    22 ar  
    26    11    32 1   
    27    12    23 1   
    28    13    26 2   
    29    13    27 1   
    30    13    33 1   
    31    14    15 1   
    32    14    34 1   
    33    14    35 1   
    34    14    36 1   
    35    15    16 1   
    36    15    24 1   
    37    16    37 1   
    38    18    38 1   
    39    18    39 1   
    40    19    40 1   
    41    21    41 1   
    42    21    42 1   
    43    24    25 2   
    44    24    27 1   
    45    25    26 1   
    46    26    43 1   
@<TRIPOS>SUBSTRUCTURE
     1 0WC         1 TEMP              0 ****  ****    0 ROOT
