@<TRIPOS>MOLECULE
0WE
   51    54     1     0     0
SMALL
bcc


@<TRIPOS>ATOM
      1 O2          -1.1670    -1.5380     1.8550 o          1 0WE      -0.594100
      2 C1          -0.8770    -1.4380     0.6710 c          1 0WE       0.676100
      3 C17          0.5350    -1.1040     0.2330 c3         1 0WE      -0.154400
      4 C18          1.5260    -1.0850     1.3930 c3         1 0WE      -0.010100
      5 C19          2.9130    -0.7740     0.9100 ca         1 0WE      -0.229600
      6 C24          3.3220     0.5300     0.6270 ca         1 0WE      -0.060000
      7 C23          4.5930     0.7800     0.1500 ca         1 0WE      -0.233600
      8 C26          5.1120     2.1280    -0.2410 c6         1 0WE      -0.017100
      9 C25          6.6040     2.2310     0.0540 c6         1 0WE      -0.163400
     10 C20          3.8410    -1.7790     0.6840 ca         1 0WE       0.440200
     11 N21          5.0770    -1.5670     0.2420 nb         1 0WE      -0.712000
     12 C22          5.4360    -0.3230    -0.0090 ca         1 0WE       0.550200
     13 N36          6.7300    -0.1290    -0.4780 ns         1 0WE      -0.558400
     14 C37          7.3900     1.0640    -0.4890 c          1 0WE       0.717500
     15 O28          8.5400     1.1480    -0.8740 o          1 0WE      -0.605500
     16 N3          -1.7880    -1.6240    -0.3120 n          1 0WE      -0.480800
     17 C4          -1.4890    -1.5210    -1.7270 c3         1 0WE       0.087300
     18 C5          -3.1440    -2.0240     0.0180 c3         1 0WE       0.163200
     19 C6          -4.1140    -0.9100    -0.1490 cc         1 0WE       0.001900
     20 O10         -3.9810     0.1410     0.7140 os         1 0WE      -0.154200
     21 C9          -4.9310     1.0400     0.3850 ca         1 0WE       0.066100
     22 C8          -5.6840     0.5690    -0.6910 ca         1 0WE      -0.117800
     23 C7          -5.1230    -0.7150    -1.0300 cd         1 0WE      -0.121400
     24 C38         -5.5820    -1.6060    -2.1300 c3         1 0WE      -0.021900
     25 C14         -5.1590     2.2600     0.9980 ca         1 0WE      -0.123000
     26 C13         -6.1980     3.0220     0.4840 ca         1 0WE      -0.109000
     27 C12         -6.9700     2.5750    -0.5960 ca         1 0WE      -0.151000
     28 C11         -6.7240     1.3490    -1.1930 ca         1 0WE      -0.078000
     29 H1           0.8690    -1.8210    -0.5220 hc         1 0WE       0.061200
     30 H2           0.5320    -0.1300    -0.2680 hc         1 0WE       0.061200
     31 H3           1.2190    -0.3470     2.1360 hc         1 0WE       0.066200
     32 H4           1.5260    -2.0550     1.8950 hc         1 0WE       0.066200
     33 H5           2.6360     1.3580     0.7720 ha         1 0WE       0.139000
     34 H6           4.9390     2.2830    -1.3110 hc         1 0WE       0.059700
     35 H7           4.5720     2.9180     0.2800 hc         1 0WE       0.059700
     36 H8           7.0240     3.1510    -0.3490 hc         1 0WE       0.078700
     37 H9           6.7680     2.2510     1.1370 hc         1 0WE       0.078700
     38 H10          3.5750    -2.8140     0.8760 h4         1 0WE       0.023100
     39 H11          7.2560    -0.9600    -0.7170 hn         1 0WE       0.339500
     40 H12         -1.1780    -2.4800    -2.1480 h1         1 0WE       0.041367
     41 H13         -2.3820    -1.1910    -2.2560 h1         1 0WE       0.041367
     42 H14         -0.7170    -0.7840    -1.9250 h1         1 0WE       0.041367
     43 H15         -3.4410    -2.8510    -0.6300 h1         1 0WE       0.078200
     44 H16         -3.1680    -2.4010     1.0400 h1         1 0WE       0.078200
     45 H17         -5.6140    -1.0670    -3.0780 hc         1 0WE       0.042367
     46 H18         -4.9260    -2.4650    -2.2600 hc         1 0WE       0.042367
     47 H19         -6.5880    -1.9840    -1.9400 hc         1 0WE       0.042367
     48 H20         -4.5610     2.6040     1.8320 ha         1 0WE       0.150000
     49 H21         -6.4160     3.9850     0.9280 ha         1 0WE       0.133000
     50 H22         -7.7700     3.2000    -0.9680 ha         1 0WE       0.132000
     51 H23         -7.3220     1.0090    -2.0290 ha         1 0WE       0.136000
@<TRIPOS>BOND
     1     1     2 2   
     2     2     3 1   
     3     2    16 1   
     4     3     4 1   
     5     3    29 1   
     6     3    30 1   
     7     4     5 1   
     8     4    31 1   
     9     4    32 1   
    10     5     6 ar  
    11     5    10 ar  
    12     6     7 ar  
    13     6    33 1   
    14     7     8 1   
    15     7    12 ar  
    16     8     9 1   
    17     8    34 1   
    18     8    35 1   
    19     9    14 1   
    20     9    36 1   
    21     9    37 1   
    22    10    11 ar  
    23    10    38 1   
    24    11    12 ar  
    25    12    13 1   
    26    13    14 1   
    27    13    39 1   
    28    14    15 2   
    29    16    17 1   
    30    16    18 1   
    31    17    40 1   
    32    17    41 1   
    33    17    42 1   
    34    18    19 1   
    35    18    43 1   
    36    18    44 1   
    37    19    20 1   
    38    19    23 2   
    39    20    21 1   
    40    21    22 ar  
    41    21    25 ar  
    42    22    23 1   
    43    22    28 ar  
    44    23    24 1   
    45    24    45 1   
    46    24    46 1   
    47    24    47 1   
    48    25    26 ar  
    49    25    48 1   
    50    26    27 ar  
    51    26    49 1   
    52    27    28 ar  
    53    27    50 1   
    54    28    51 1   
@<TRIPOS>SUBSTRUCTURE
     1 0WE         1 TEMP              0 ****  ****    0 ROOT
