@<TRIPOS>MOLECULE
0WE
   51    54     1     0     0
SMALL
No Charge or Current Charge


@<TRIPOS>ATOM
      1 O2          -1.2390    -1.8230     1.8310 o          1 0WE      -0.594100
      2 C1          -0.9040    -1.6910     0.6600 c          1 0WE       0.609100
      3 C17          0.5510    -1.3340     0.2910 c3         1 0WE      -0.154400
      4 C18          1.5190    -1.1480     1.4830 c3         1 0WE      -0.010100
      5 C19          2.9280    -0.7980     1.0220 ca         1 0WE      -0.164300
      6 C24          3.2220     0.4940     0.5430 ca         1 0WE      -0.042000
      7 C23          4.5370     0.7630     0.1300 ca         1 0WE      -0.168300
      8 C26          4.9470     2.1230    -0.4380 c6         1 0WE      -0.017100
      9 C25          6.4680     2.3850    -0.2630 c6         1 0WE      -0.163400
     10 C20          3.9600    -1.7620     1.0590 ca         1 0WE       0.374900
     11 N21          5.2280    -1.5100     0.6580 nb         1 0WE      -0.712000
     12 C22          5.4840    -0.2700     0.2090 ca         1 0WE       0.484900
     13 N36          6.7980    -0.0590    -0.1870 ns         1 0WE      -0.324900
     14 C37          7.3510     1.1500    -0.5170 c          1 0WE       0.575000
     15 O28          8.4680     1.2380    -1.0040 o          1 0WE      -0.530000
     16 N3          -1.8410    -1.8740    -0.3850 n          1 0WE      -0.413800
     17 C4          -1.4750    -1.6850    -1.8080 c3         1 0WE       0.087300
     18 C5          -3.2610    -2.1850    -0.0880 c3         1 0WE       0.163200
     19 C6          -4.1220    -0.9490    -0.1660 cc         1 0WE       0.001900
     20 O10         -3.9650     0.0350     0.8120 os         1 0WE      -0.154200
     21 C9          -4.8730     1.0110     0.4650 ca         1 0WE       0.066100
     22 C8          -5.5850     0.6980    -0.6620 ca         1 0WE      -0.117800
     23 C7          -5.0970    -0.5800    -1.0800 cd         1 0WE      -0.121400
     24 C38         -5.5680    -1.3670    -2.2770 c3         1 0WE      -0.021900
     25 C14         -5.0920     2.2120     1.1530 ca         1 0WE      -0.105000
     26 C13         -6.0710     3.0960     0.6500 ca         1 0WE      -0.091000
     27 C12         -6.8050     2.7650    -0.5170 ca         1 0WE      -0.133000
     28 C11         -6.5650     1.5480    -1.1910 ca         1 0WE      -0.060000
     29 H1           0.9200    -2.0950    -0.4060 hc         1 0WE       0.061200
     30 H2           0.5300    -0.4460    -0.3500 hc         1 0WE       0.061200
     31 H3           1.1350    -0.3550     2.1390 hc         1 0WE       0.066200
     32 H4           1.5300    -2.0650     2.0850 hc         1 0WE       0.066200
     33 H5           2.4520     1.2610     0.4910 ha         1 0WE       0.121000
     34 H6           4.6940     2.1510    -1.5070 hc         1 0WE       0.059700
     35 H7           4.3710     2.9300     0.0370 hc         1 0WE       0.059700
     36 H8           6.8320     3.2470    -0.8380 hc         1 0WE       0.078700
     37 H9           6.6080     2.6190     0.8000 hc         1 0WE       0.078700
     38 H10          3.7640    -2.7710     1.4210 h4         1 0WE       0.023100
     39 H11          7.3700    -0.8840    -0.3030 hn         1 0WE       0.173000
     40 H12         -0.6700    -2.3770    -2.0840 h1         1 0WE       0.041367
     41 H13         -2.3390    -1.8810    -2.4550 h1         1 0WE       0.041367
     42 H14         -1.1440    -0.6520    -1.9740 h1         1 0WE       0.041367
     43 H15         -3.6250    -2.9310    -0.8060 h1         1 0WE       0.078200
     44 H16         -3.3610    -2.6300     0.9100 h1         1 0WE       0.078200
     45 H17         -5.9820    -0.7080    -3.0490 hc         1 0WE       0.042367
     46 H18         -4.7460    -1.9300    -2.7340 hc         1 0WE       0.042367
     47 H19         -6.3480    -2.0820    -1.9920 hc         1 0WE       0.042367
     48 H20         -4.5220     2.4530     2.0470 ha         1 0WE       0.132000
     49 H21         -6.2640     4.0370     1.1610 ha         1 0WE       0.115000
     50 H22         -7.5570     3.4530    -0.8950 ha         1 0WE       0.114000
     51 H23         -7.1230     1.2830    -2.0860 ha         1 0WE       0.118000
@<TRIPOS>BOND
     1     1     2 2   
     2     2     3 1   
     3     2    16 1   
     4     3     4 1   
     5     3    29 1   
     6     3    30 1   
     7     4     5 1   
     8     4    31 1   
     9     4    32 1   
    10     5     6 ar  
    11     5    10 ar  
    12     6     7 ar  
    13     6    33 1   
    14     7     8 1   
    15     7    12 ar  
    16     8     9 1   
    17     8    34 1   
    18     8    35 1   
    19     9    14 1   
    20     9    36 1   
    21     9    37 1   
    22    10    11 ar  
    23    10    38 1   
    24    11    12 ar  
    25    12    13 1   
    26    13    14 1   
    27    13    39 1   
    28    14    15 2   
    29    16    17 1   
    30    16    18 1   
    31    17    40 1   
    32    17    41 1   
    33    17    42 1   
    34    18    19 1   
    35    18    43 1   
    36    18    44 1   
    37    19    20 1   
    38    19    23 2   
    39    20    21 1   
    40    21    22 ar  
    41    21    25 ar  
    42    22    23 1   
    43    22    28 ar  
    44    23    24 1   
    45    24    45 1   
    46    24    46 1   
    47    24    47 1   
    48    25    26 ar  
    49    25    48 1   
    50    26    27 ar  
    51    26    49 1   
    52    27    28 ar  
    53    27    50 1   
    54    28    51 1   
@<TRIPOS>SUBSTRUCTURE
     1 0WE         1 TEMP              0 ****  ****    0 ROOT
