@<TRIPOS>MOLECULE
0WF
   53    57     1     0     0
SMALL
No Charge or Current Charge


@<TRIPOS>ATOM
      1 C1          -0.4520     2.0720     2.5780 c3         1 0WF      -0.093100
      2 C2           0.0780     1.9190     1.1330 c3         1 0WF       0.147200
      3 C3          -0.8970     1.1510     0.2250 cc         1 0WF       0.516900
      4 N1          -0.9870     1.6660    -1.0550 ns         1 0WF      -0.435400
      5 C4          -1.7640     1.1570    -2.0380 c          1 0WF       0.620600
      6 O1          -1.8250     1.6290    -3.1610 o          1 0WF      -0.533000
      7 C5          -2.4880     0.0030    -1.5670 cc         1 0WF      -0.332600
      8 C6          -3.3920    -0.8100    -2.2570 cc         1 0WF       0.316900
      9 N2          -3.8810    -1.7970    -1.5210 nd         1 0WF      -0.514800
     10 N3          -3.2500    -1.6010    -0.2850 na         1 0WF       0.144800
     11 C7          -2.3970    -0.4940    -0.3210 cd         1 0WF       0.133400
     12 N4          -1.5770     0.0710     0.6500 nd         1 0WF      -0.607100
     13 C8          -3.5090    -2.4950     0.8530 c5         1 0WF       0.092300
     14 C9          -4.9930    -2.6060     1.2920 c5         1 0WF      -0.088900
     15 C10         -4.9320    -3.7310     2.3640 c5         1 0WF      -0.079900
     16 C11         -3.7560    -4.6550     1.9080 c5         1 0WF      -0.079900
     17 C12         -3.2200    -3.9980     0.6030 c5         1 0WF      -0.088900
     18 N5           1.4530     1.3670     1.1540 nq         1 0WF      -0.692600
     19 C13          2.2680     1.2290    -0.0940 cy         1 0WF       0.134800
     20 C14          3.4880     1.1550     0.8890 cy         1 0WF       0.138300
     21 C15          2.6050     2.0890     1.7830 cy         1 0WF       0.134800
     22 O2           4.7310     1.7080     0.4250 os         1 0WF      -0.340100
     23 C16          5.4860     1.1120    -0.5630 ca         1 0WF       0.139100
     24 C17          6.5380     1.8540    -1.1240 ca         1 0WF      -0.168500
     25 C18          7.3420     1.2980    -2.1350 ca         1 0WF      -0.075000
     26 C19          7.0940    -0.0090    -2.5860 ca         1 0WF      -0.144000
     27 C20          6.0460    -0.7600    -2.0260 ca         1 0WF      -0.075000
     28 C21          5.2420    -0.2040    -1.0150 ca         1 0WF      -0.168500
     29 H3          -0.4890     1.1000     3.0860 hc         1 0WF       0.051367
     30 H4           0.1900     2.7410     3.1630 hc         1 0WF       0.051367
     31 H2          -1.4630     2.4960     2.5720 hc         1 0WF       0.051367
     32 H5           0.1550     2.9370     0.7280 h1         1 0WF       0.034700
     33 H1          -0.4380     2.4760    -1.2980 hn         1 0WF       0.327500
     34 H6          -3.7130    -0.7130    -3.2860 h4         1 0WF       0.051100
     35 H7          -2.9040    -2.1430     1.7000 h1         1 0WF       0.084700
     36 H8          -5.3790    -1.6640     1.6990 hc         1 0WF       0.059450
     37 H9          -5.6450    -2.8880     0.4560 hc         1 0WF       0.059450
     38 H10         -4.7330    -3.3160     3.3590 hc         1 0WF       0.047450
     39 H11         -5.8820    -4.2750     2.4340 hc         1 0WF       0.047450
     40 H12         -2.9760    -4.6950     2.6770 hc         1 0WF       0.047450
     41 H13         -4.0830    -5.6870     1.7350 hc         1 0WF       0.047450
     42 H15         -3.7510    -4.3740    -0.2800 hc         1 0WF       0.059450
     43 H14         -2.1530    -4.1960     0.4470 hc         1 0WF       0.059450
     44 H17          2.0980     0.3220    -0.6860 h1         1 0WF       0.064700
     45 H16          2.2830     2.1120    -0.7450 h1         1 0WF       0.064700
     46 H18          3.6430     0.1650     1.3320 h1         1 0WF       0.072700
     47 H19          2.6870     3.1530     1.5250 h1         1 0WF       0.064700
     48 H20          2.7350     1.9490     2.8620 h1         1 0WF       0.064700
     49 H21          6.7300     2.8650    -0.7750 ha         1 0WF       0.122000
     50 H22          8.1540     1.8780    -2.5670 ha         1 0WF       0.113500
     51 H23          7.7150    -0.4410    -3.3680 ha         1 0WF       0.116000
     52 H24          5.8580    -1.7740    -2.3750 ha         1 0WF       0.113500
     53 H25          4.4430    -0.8070    -0.5940 ha         1 0WF       0.122000
@<TRIPOS>BOND
     1     1     2 1   
     2     1    29 1   
     3     1    30 1   
     4     1    31 1   
     5     2     3 1   
     6     2    18 1   
     7     2    32 1   
     8     3     4 1   
     9     3    12 2   
    10     4     5 1   
    11     4    33 1   
    12     5     6 2   
    13     5     7 1   
    14     7     8 1   
    15     7    11 2   
    16     8     9 2   
    17     8    34 1   
    18     9    10 1   
    19    10    11 1   
    20    10    13 1   
    21    11    12 1   
    22    13    14 1   
    23    13    17 1   
    24    13    35 1   
    25    14    15 1   
    26    14    36 1   
    27    14    37 1   
    28    15    16 1   
    29    15    38 1   
    30    15    39 1   
    31    16    17 1   
    32    16    40 1   
    33    16    41 1   
    34    17    42 1   
    35    17    43 1   
    36    18    19 1   
    37    18    21 1   
    38    19    20 1   
    39    19    44 1   
    40    19    45 1   
    41    20    21 1   
    42    20    22 1   
    43    20    46 1   
    44    21    47 1   
    45    21    48 1   
    46    22    23 1   
    47    23    24 ar  
    48    23    28 ar  
    49    24    25 ar  
    50    24    49 1   
    51    25    26 ar  
    52    25    50 1   
    53    26    27 ar  
    54    26    51 1   
    55    27    28 ar  
    56    27    52 1   
    57    28    53 1   
@<TRIPOS>SUBSTRUCTURE
     1 0WF         1 TEMP              0 ****  ****    0 ROOT
