@<TRIPOS>MOLECULE
0WF
   53    57     1     0     0
SMALL
abcg2


@<TRIPOS>ATOM
      1 C1          -0.5760     3.5160     1.6870 c3         1 0WF      -0.093100
      2 C2          -0.0490     2.5780     0.6000 c3         1 0WF       0.147200
      3 C3          -1.2010     1.8170    -0.0080 cc         1 0WF       0.516900
      4 N1          -1.9960     2.5310    -0.8520 ns         1 0WF      -0.435400
      5 C4          -3.1520     2.0670    -1.4840 c          1 0WF       0.620600
      6 O1          -3.8060     2.7910    -2.2130 o          1 0WF      -0.533000
      7 C5          -3.3920     0.6990    -1.1490 cc         1 0WF      -0.332600
      8 C6          -4.3460    -0.2830    -1.4770 cc         1 0WF       0.316900
      9 N2          -4.0580    -1.4170    -0.8830 nd         1 0WF      -0.514800
     10 N3          -2.9390    -1.2110    -0.1700 na         1 0WF       0.144800
     11 C7          -2.5040     0.0500    -0.2980 cd         1 0WF       0.133400
     12 N4          -1.4120     0.5800     0.2960 nd         1 0WF      -0.607100
     13 C8          -2.3260    -2.2860     0.5840 c5         1 0WF       0.092300
     14 C9          -3.2490    -2.8950     1.6670 c5         1 0WF      -0.088900
     15 C10         -3.1520    -4.4180     1.4850 c5         1 0WF      -0.079900
     16 C11         -1.8720    -4.6320     0.6750 c5         1 0WF      -0.079900
     17 C12         -1.8850    -3.4600    -0.2980 c5         1 0WF      -0.088900
     18 N5           0.9120     1.6640     1.1510 nq         1 0WF      -0.692600
     19 C13          1.6410     0.7740     0.2420 cy         1 0WF       0.134800
     20 C14          2.8980     1.0160     1.0930 cy         1 0WF       0.138300
     21 C15          2.1690     2.2380     1.6490 cy         1 0WF       0.134800
     22 O2           4.0980     1.3350     0.4420 os         1 0WF      -0.340100
     23 C16          4.7770     0.3510    -0.1890 ca         1 0WF       0.139100
     24 C17          5.9740     0.7270    -0.8010 ca         1 0WF      -0.168500
     25 C18          6.7370    -0.2140    -1.4690 ca         1 0WF      -0.075000
     26 C19          6.3240    -1.5410    -1.5400 ca         1 0WF      -0.144000
     27 C20          5.1350    -1.9090    -0.9300 ca         1 0WF      -0.075000
     28 C21          4.3550    -0.9740    -0.2560 ca         1 0WF      -0.168500
     29 H3          -1.0880     2.9500     2.4650 hc         1 0WF       0.051367
     30 H4           0.2480     4.0640     2.1430 hc         1 0WF       0.051367
     31 H2          -1.2670     4.2510     1.2770 hc         1 0WF       0.051367
     32 H5           0.4000     3.1930    -0.2010 h1         1 0WF       0.034700
     33 H1          -1.7370     3.4900    -1.0490 hn         1 0WF       0.327500
     34 H6          -5.2130    -0.2000    -2.1130 h4         1 0WF       0.051100
     35 H7          -1.4510    -1.8410     1.0560 h1         1 0WF       0.084700
     36 H8          -2.9010    -2.5920     2.6550 hc         1 0WF       0.059450
     37 H9          -4.2730    -2.5370     1.5660 hc         1 0WF       0.059450
     38 H10         -3.1480    -4.9540     2.4340 hc         1 0WF       0.047450
     39 H11         -4.0080    -4.7830     0.9140 hc         1 0WF       0.047450
     40 H12         -0.9950    -4.5720     1.3250 hc         1 0WF       0.047450
     41 H13         -1.8400    -5.5990     0.1730 hc         1 0WF       0.047450
     42 H15         -2.6310    -3.6330    -1.0780 hc         1 0WF       0.059450
     43 H14         -0.9270    -3.2740    -0.7840 hc         1 0WF       0.059450
     44 H17          1.2470    -0.2400     0.1790 h1         1 0WF       0.064700
     45 H16          1.7610     1.1770    -0.7730 h1         1 0WF       0.064700
     46 H18          3.0540     0.2360     1.8450 h1         1 0WF       0.072700
     47 H19          2.4720     3.1520     1.1220 h1         1 0WF       0.064700
     48 H20          2.2130     2.4150     2.7250 h1         1 0WF       0.064700
     49 H21          6.2970     1.7600    -0.7480 ha         1 0WF       0.122000
     50 H22          7.6630     0.0920    -1.9380 ha         1 0WF       0.113500
     51 H23          6.9220    -2.2740    -2.0630 ha         1 0WF       0.116000
     52 H24          4.7980    -2.9360    -0.9750 ha         1 0WF       0.113500
     53 H25          3.4320    -1.3000     0.2030 ha         1 0WF       0.122000
@<TRIPOS>BOND
     1     1     2 1   
     2     1    29 1   
     3     1    30 1   
     4     1    31 1   
     5     2     3 1   
     6     2    18 1   
     7     2    32 1   
     8     3     4 1   
     9     3    12 2   
    10     4     5 1   
    11     4    33 1   
    12     5     6 2   
    13     5     7 1   
    14     7     8 1   
    15     7    11 2   
    16     8     9 2   
    17     8    34 1   
    18     9    10 1   
    19    10    11 1   
    20    10    13 1   
    21    11    12 1   
    22    13    14 1   
    23    13    17 1   
    24    13    35 1   
    25    14    15 1   
    26    14    36 1   
    27    14    37 1   
    28    15    16 1   
    29    15    38 1   
    30    15    39 1   
    31    16    17 1   
    32    16    40 1   
    33    16    41 1   
    34    17    42 1   
    35    17    43 1   
    36    18    19 1   
    37    18    21 1   
    38    19    20 1   
    39    19    44 1   
    40    19    45 1   
    41    20    21 1   
    42    20    22 1   
    43    20    46 1   
    44    21    47 1   
    45    21    48 1   
    46    22    23 1   
    47    23    24 ar  
    48    23    28 ar  
    49    24    25 ar  
    50    24    49 1   
    51    25    26 ar  
    52    25    50 1   
    53    26    27 ar  
    54    26    51 1   
    55    27    28 ar  
    56    27    52 1   
    57    28    53 1   
@<TRIPOS>SUBSTRUCTURE
     1 0WF         1 TEMP              0 ****  ****    0 ROOT
