@<TRIPOS>MOLECULE
0WG
   40    42     1     0     0
SMALL
No Charge or Current Charge


@<TRIPOS>ATOM
      1 C1           4.4400     1.3970     0.4010 c3         1 0WG       0.097300
      2 N2           3.3500     0.4330     0.0670 n          1 0WG      -0.383300
      3 C3           2.0210     0.9090    -0.0820 ca         1 0WG       0.584900
      4 N4           1.8300     2.2250     0.1090 nb         1 0WG      -0.827000
      5 C5           0.6010     2.6740    -0.0080 ca         1 0WG       0.690900
      6 N6           0.5930     3.9850     0.1750 nv         1 0WG      -1.051900
      7 C7          -0.5290     1.9240    -0.3370 ca         1 0WG      -0.239300
      8 C8          -1.8910     2.6070    -0.4120 c3         1 0WG       0.207100
      9 N9          -1.8990     3.6630    -1.4420 n8         1 0WG      -1.028200
     10 C10         -0.3530     0.5330    -0.5410 cp         1 0WG       0.129000
     11 C11         -1.5400    -0.3190    -0.8530 cp         1 0WG      -0.016000
     12 C12         -1.9920    -0.4540    -2.1870 ca         1 0WG      -0.090000
     13 C13         -3.1190    -1.2370    -2.4910 ca         1 0WG      -0.099000
     14 C14         -3.8120    -1.8950    -1.4620 ca         1 0WG      -0.103000
     15 C15         -3.3800    -1.7680    -0.1300 ca         1 0WG      -0.082000
     16 C16         -2.2530    -0.9850     0.1760 ca         1 0WG       0.009100
     17 Br1         -1.7170    -0.8450     2.0110 br         1 0WG      -0.093100
     18 C18          0.9820     0.0420    -0.4030 ca         1 0WG      -0.312600
     19 C19          1.2830    -1.4100    -0.5960 c          1 0WG       0.605600
     20 O20          0.4380    -2.2270    -0.9320 o          1 0WG      -0.525000
     21 N21          2.6090    -1.8060    -0.3850 n          1 0WG      -0.373400
     22 C22          2.9380    -3.2540    -0.5420 c3         1 0WG       0.087300
     23 C23          3.6530    -0.9260    -0.0740 c          1 0WG       0.623000
     24 O24          4.7980    -1.3350     0.0640 o          1 0WG      -0.557000
     25 H1           4.2450     1.8480     1.3820 h1         1 0WG       0.059033
     26 H2           5.4270     0.9200     0.4340 h1         1 0WG       0.059033
     27 H3           4.4760     2.1920    -0.3550 h1         1 0WG       0.059033
     28 H4           1.5070     4.3940     0.0430 hn         1 0WG       0.503500
     29 H5          -0.1690     4.4310    -0.3310 hn         1 0WG       0.503500
     30 H6          -2.6920     1.8900    -0.6400 h1         1 0WG       0.048700
     31 H7          -2.1230     3.0600     0.5630 h1         1 0WG       0.048700
     32 H8          -1.7840     3.2220    -2.3630 hn         1 0WG       0.405500
     33 H9          -2.8430     4.0670    -1.4930 hn         1 0WG       0.405500
     34 H11         -1.4600     0.0540    -2.9880 ha         1 0WG       0.117000
     35 H12         -3.4530    -1.3330    -3.5210 ha         1 0WG       0.117000
     36 H13         -4.6850    -2.5010    -1.6950 ha         1 0WG       0.118000
     37 H14         -3.9200    -2.2770     0.6650 ha         1 0WG       0.130000
     38 H15          3.7820    -3.5400     0.0980 h1         1 0WG       0.057367
     39 H16          2.0880    -3.8850    -0.2550 h1         1 0WG       0.057367
     40 H17          3.1980    -3.4600    -1.5880 h1         1 0WG       0.057367
@<TRIPOS>BOND
     1     1     2 1   
     2     1    25 1   
     3     1    26 1   
     4     1    27 1   
     5     2     3 1   
     6     2    23 1   
     7     3     4 ar  
     8     3    18 ar  
     9     4     5 ar  
    10     5     6 1   
    11     5     7 ar  
    12     6    28 1   
    13     6    29 1   
    14     7     8 1   
    15     7    10 ar  
    16     8     9 1   
    17     8    30 1   
    18     8    31 1   
    19     9    32 1   
    20     9    33 1   
    21    10    11 1   
    22    10    18 ar  
    23    11    12 ar  
    24    11    16 ar  
    25    12    13 ar  
    26    12    34 1   
    27    13    14 ar  
    28    13    35 1   
    29    14    15 ar  
    30    14    36 1   
    31    15    16 ar  
    32    15    37 1   
    33    16    17 1   
    34    18    19 1   
    35    19    20 2   
    36    19    21 1   
    37    21    22 1   
    38    21    23 1   
    39    22    38 1   
    40    22    39 1   
    41    22    40 1   
    42    23    24 2   
@<TRIPOS>SUBSTRUCTURE
     1 0WG         1 TEMP              0 ****  ****    0 ROOT
