@<TRIPOS>MOLECULE
0WG
   40    42     1     0     0
SMALL
bcc


@<TRIPOS>ATOM
      1 C1           4.4060     1.3170     0.3390 c3         1 0WG       0.097300
      2 N2           3.3070     0.4050     0.0430 n          1 0WG      -0.450300
      3 C3           2.0240     0.8830    -0.1220 ca         1 0WG       0.650200
      4 N4           1.8570     2.1850     0.0090 nb         1 0WG      -0.827000
      5 C5           0.6410     2.6980    -0.1390 ca         1 0WG       0.756200
      6 N6           0.5080     4.0260    -0.0040 nv         1 0WG      -0.941500
      7 C7          -0.5120     1.8970    -0.3920 ca         1 0WG      -0.304600
      8 C8          -1.8690     2.5490    -0.3920 c3         1 0WG       0.207100
      9 N9          -1.9430     3.6310    -1.3680 n8         1 0WG      -0.917800
     10 C10         -0.3100     0.5470    -0.5580 cp         1 0WG       0.129000
     11 C11         -1.4740    -0.3180    -0.8770 cp         1 0WG      -0.016000
     12 C12         -1.9180    -0.4050    -2.1920 ca         1 0WG      -0.108000
     13 C13         -3.0300    -1.1630    -2.5220 ca         1 0WG      -0.117000
     14 C14         -3.7200    -1.8450    -1.5310 ca         1 0WG      -0.121000
     15 C15         -3.3000    -1.7660    -0.2100 ca         1 0WG      -0.100000
     16 C16         -2.1850    -1.0040     0.1010 ca         1 0WG       0.009100
     17 BR1         -1.6210    -0.9010     1.9000 br         1 0WG      -0.093100
     18 C18          0.9880     0.0010    -0.4290 ca         1 0WG      -0.377900
     19 C19          1.2680    -1.4120    -0.5770 c          1 0WG       0.748100
     20 O20          0.4510    -2.2560    -0.8970 o          1 0WG      -0.600500
     21 N21          2.5760    -1.7950    -0.3100 n          1 0WG      -0.507400
     22 C22          2.8610    -3.2230    -0.3930 c3         1 0WG       0.087300
     23 C23          3.6060    -0.9340     0.0070 c          1 0WG       0.832500
     24 O24          4.7310    -1.3330     0.2360 o          1 0WG      -0.632500
     25 H1           4.6030     1.3580     1.4100 h1         1 0WG       0.059033
     26 H2           5.3030     0.9890    -0.1740 h1         1 0WG       0.059033
     27 H3           4.1420     2.3090    -0.0060 h1         1 0WG       0.059033
     28 H4           1.3480     4.5770     0.0590 hn         1 0WG       0.448300
     29 H5          -0.3030     4.4450    -0.4510 hn         1 0WG       0.448300
     30 H6          -2.6480     1.7930    -0.5230 h1         1 0WG       0.048700
     31 H7          -2.0350     2.9860     0.5980 h1         1 0WG       0.048700
     32 H8          -1.9070     3.2520    -2.3060 hn         1 0WG       0.350300
     33 H9          -2.8350     4.1020    -1.2830 hn         1 0WG       0.350300
     34 H11         -1.3790     0.1310    -2.9640 ha         1 0WG       0.135000
     35 H12         -3.3580    -1.2190    -3.5520 ha         1 0WG       0.135000
     36 H13         -4.5920    -2.4370    -1.7760 ha         1 0WG       0.136000
     37 H14         -3.8420    -2.2940     0.5620 ha         1 0WG       0.148000
     38 H15          3.8850    -3.4020    -0.0940 h1         1 0WG       0.057367
     39 H16          2.1990    -3.7770     0.2690 h1         1 0WG       0.057367
     40 H17          2.7200    -3.5820    -1.4110 h1         1 0WG       0.057367
@<TRIPOS>BOND
     1     1     2 1   
     2     1    25 1   
     3     1    26 1   
     4     1    27 1   
     5     2     3 1   
     6     2    23 1   
     7     3     4 ar  
     8     3    18 ar  
     9     4     5 ar  
    10     5     6 1   
    11     5     7 ar  
    12     6    28 1   
    13     6    29 1   
    14     7     8 1   
    15     7    10 ar  
    16     8     9 1   
    17     8    30 1   
    18     8    31 1   
    19     9    32 1   
    20     9    33 1   
    21    10    11 1   
    22    10    18 ar  
    23    11    12 ar  
    24    11    16 ar  
    25    12    13 ar  
    26    12    34 1   
    27    13    14 ar  
    28    13    35 1   
    29    14    15 ar  
    30    14    36 1   
    31    15    16 ar  
    32    15    37 1   
    33    16    17 1   
    34    18    19 1   
    35    19    20 2   
    36    19    21 1   
    37    21    22 1   
    38    21    23 1   
    39    22    38 1   
    40    22    39 1   
    41    22    40 1   
    42    23    24 2   
@<TRIPOS>SUBSTRUCTURE
     1 0WG         1 TEMP              0 ****  ****    0 ROOT
