@<TRIPOS>MOLECULE
0WH
   53    57     1     0     0
SMALL
No Charge or Current Charge


@<TRIPOS>ATOM
      1 C            6.5130    -0.6700    -0.6060 ca         1 0WH       0.146500
      2 F           -8.6040    -0.0160    -0.8300 f          1 0WH      -0.114333
      3 N            7.5200    -1.5570    -0.4870 nb         1 0WH      -0.230000
      4 O           -2.9600     1.2170     1.9700 o          1 0WH      -0.573100
      5 C01          7.6590     1.1430    -1.8770 c3         1 0WH       0.066900
      6 F01         -7.5970    -0.9270     0.8600 f          1 0WH      -0.114333
      7 N01          6.4790     0.5860    -1.1970 na         1 0WH      -0.177400
      8 C02          5.2360     1.2130    -1.0140 cc         1 0WH      -0.160100
      9 F02         -7.7150    -1.9890    -1.0340 f          1 0WH      -0.114333
     10 N02         -0.9080     1.5620     1.0010 n          1 0WH      -0.223400
     11 C03          4.4540     0.2680    -0.3660 cd         1 0WH      -0.056400
     12 N03          4.0170    -2.3020     1.5150 nv         1 0WH      -1.065900
     13 C04          3.0470     0.5060     0.0220 ca         1 0WH      -0.039800
     14 N04          6.0920    -2.9460     0.8810 nb         1 0WH      -0.301000
     15 C05          2.0930    -0.5400     0.0290 ca         1 0WH      -0.085000
     16 C06          0.7480    -0.2960     0.3690 ca         1 0WH      -0.151000
     17 C07          0.3640     1.0160     0.6930 ca         1 0WH      -0.018000
     18 C08         -0.7900     2.9450     1.5310 c5         1 0WH       0.096000
     19 C09          0.6490     3.3820     1.0330 c5         1 0WH      -0.043100
     20 C10          1.2730     2.0500     0.6540 ca         1 0WH      -0.130300
     21 C11          2.6140     1.8210     0.3100 ca         1 0WH      -0.063000
     22 C13         -2.4970    -0.2140     0.0970 c3         1 0WH      -0.109100
     23 C14         -3.7850     0.1110    -0.6540 ca         1 0WH      -0.076300
     24 C15         -3.7520     0.9780    -1.7610 ca         1 0WH      -0.061000
     25 C16         -4.9350     1.2780    -2.4560 ca         1 0WH      -0.115000
     26 C17         -6.1560     0.7180    -2.0480 ca         1 0WH      -0.054000
     27 C18         -6.2080    -0.1450    -0.9310 ca         1 0WH      -0.195300
     28 C19         -5.0110    -0.4480    -0.2450 ca         1 0WH      -0.047000
     29 C20         -7.5350    -0.7680    -0.4820 c3         1 0WH       0.356300
     30 C21          5.2760    -0.8970    -0.0390 ca         1 0WH      -0.244800
     31 C22          5.1030    -2.0510     0.7480 ca         1 0WH       0.426900
     32 C23          7.2490    -2.6660     0.2370 ca         1 0WH       0.179900
     33 H01          7.9710     0.4700    -2.6860 h1         1 0WH       0.055700
     34 H01A         7.4180     2.1260    -2.3000 h1         1 0WH       0.055700
     35 H01B         8.4820     1.2510    -1.1590 h1         1 0WH       0.055700
     36 H02          5.0070     2.2070    -1.3830 h4         1 0WH       0.218000
     37 HN03         3.3800    -1.5300     1.6860 hn         1 0WH       0.493500
     38 HN0A         4.1040    -2.9940     2.2550 hn         1 0WH       0.493500
     39 H05          2.3800    -1.5420    -0.2810 ha         1 0WH       0.128000
     40 H06          0.0480    -1.1260     0.3910 ha         1 0WH       0.120000
     41 H08         -1.5770     3.6050     1.1420 h1         1 0WH       0.063700
     42 H09          0.5830     4.0490     0.1670 hc         1 0WH       0.062700
     43 H11          3.3150     2.6520     0.2960 ha         1 0WH       0.120000
     44 H13         -1.6890    -0.3330    -0.6300 hc         1 0WH       0.074200
     45 H13A        -2.5940    -1.1610     0.6390 hc         1 0WH       0.074200
     46 H15         -2.8110     1.4180    -2.0860 ha         1 0WH       0.118000
     47 H16         -4.9040     1.9440    -3.3150 ha         1 0WH       0.122000
     48 H17         -7.0600     0.9580    -2.6050 ha         1 0WH       0.131000
     49 H19         -5.0320    -1.1190     0.6110 ha         1 0WH       0.125000
     50 H23          8.0530    -3.3920     0.3390 h5         1 0WH       0.044100
     51 H191        -0.8480     2.9420     2.6270 h1         1 0WH       0.063700
     52 H20          1.2080     3.9090     1.8140 hc         1 0WH       0.062700
     53 C12         -2.1440     0.8840     1.1160 c          1 0WH       0.607100
@<TRIPOS>BOND
     1     1     3 ar  
     2     1     7 1   
     3     1    30 ar  
     4     2    29 1   
     5     3    32 ar  
     6     4    53 2   
     7     5     7 1   
     8     5    33 1   
     9     5    34 1   
    10     5    35 1   
    11     6    29 1   
    12     7     8 1   
    13     8    11 2   
    14     8    36 1   
    15     9    29 1   
    16    10    17 1   
    17    10    18 1   
    18    10    53 1   
    19    11    13 1   
    20    11    30 1   
    21    12    31 1   
    22    12    37 1   
    23    12    38 1   
    24    13    15 ar  
    25    13    21 ar  
    26    14    31 ar  
    27    14    32 ar  
    28    15    16 ar  
    29    15    39 1   
    30    16    17 ar  
    31    16    40 1   
    32    17    20 ar  
    33    18    19 1   
    34    18    41 1   
    35    18    51 1   
    36    19    20 1   
    37    19    42 1   
    38    19    52 1   
    39    20    21 ar  
    40    21    43 1   
    41    22    23 1   
    42    22    44 1   
    43    22    45 1   
    44    22    53 1   
    45    23    24 ar  
    46    23    28 ar  
    47    24    25 ar  
    48    24    46 1   
    49    25    26 ar  
    50    25    47 1   
    51    26    27 ar  
    52    26    48 1   
    53    27    28 ar  
    54    27    29 1   
    55    28    49 1   
    56    30    31 ar  
    57    32    50 1   
@<TRIPOS>SUBSTRUCTURE
     1 0WH         1 TEMP              0 ****  ****    0 ROOT
