@<TRIPOS>MOLECULE
0WH
   53    57     1     0     0
SMALL
abcg2


@<TRIPOS>ATOM
      1 C            6.3930    -0.9100    -0.2330 ca         1 0WH       0.146500
      2 F           -7.9640    -1.6740     0.1920 f          1 0WH      -0.114333
      3 N            7.2850    -1.8990    -0.1480 nb         1 0WH      -0.230000
      4 O           -3.0460     2.5430     0.4250 o          1 0WH      -0.573100
      5 C01          7.9520     0.8540    -1.0420 c3         1 0WH       0.066900
      6 F01         -6.6060    -1.1540     1.7770 f          1 0WH      -0.114333
      7 N01          6.6670     0.3650    -0.6010 na         1 0WH      -0.177400
      8 C02          5.5010     1.0850    -0.5690 cc         1 0WH      -0.160100
      9 F02         -6.1710    -2.8230     0.4970 f          1 0WH      -0.114333
     10 N02         -0.8420     2.1910     0.3760 n          1 0WH      -0.223400
     11 C03          4.4570     0.2930    -0.1750 cd         1 0WH      -0.056400
     12 N03          3.3470    -2.5150     0.9360 nv         1 0WH      -1.065900
     13 C04          3.0610     0.7260    -0.0570 ca         1 0WH      -0.039800
     14 N04          5.4900    -3.2580     0.6240 nb         1 0WH      -0.301000
     15 C05          2.0260    -0.0160    -0.6240 ca         1 0WH      -0.085000
     16 C06          0.6960     0.3800    -0.5370 ca         1 0WH      -0.151000
     17 C07          0.3880     1.5620     0.1270 ca         1 0WH      -0.018000
     18 C08         -0.6430     3.4150     1.1710 c5         1 0WH       0.096000
     19 C09          0.8750     3.5620     1.3220 c5         1 0WH      -0.043100
     20 C10          1.4190     2.3240     0.6780 ca         1 0WH      -0.130300
     21 C11          2.7320     1.9170     0.5980 ca         1 0WH      -0.063000
     22 C13         -2.3530     0.5780    -0.7400 c3         1 0WH      -0.109100
     23 C14         -3.8120     0.3560    -1.0040 ca         1 0WH      -0.076300
     24 C15         -4.4410     0.9730    -2.0830 ca         1 0WH      -0.061000
     25 C16         -5.7890     0.7690    -2.3240 ca         1 0WH      -0.115000
     26 C17         -6.5350    -0.0550    -1.4920 ca         1 0WH      -0.054000
     27 C18         -5.9140    -0.6730    -0.4170 ca         1 0WH      -0.195300
     28 C19         -4.5590    -0.4670    -0.1750 ca         1 0WH      -0.047000
     29 C20         -6.6690    -1.5770     0.5050 c3         1 0WH       0.356300
     30 C21          5.0250    -1.0040     0.0530 ca         1 0WH      -0.244800
     31 C22          4.6070    -2.2590     0.5460 ca         1 0WH       0.426900
     32 C23          6.7530    -3.0280     0.2710 ca         1 0WH       0.179900
     33 H01          8.1140     0.6430    -2.0990 h1         1 0WH       0.055700
     34 H01A         7.9990     1.9280    -0.8860 h1         1 0WH       0.055700
     35 H01B         8.7440     0.3840    -0.4640 h1         1 0WH       0.055700
     36 H02          5.4950     2.1270    -0.8500 h4         1 0WH       0.218000
     37 HN03         2.7020    -1.7620     1.1030 hn         1 0WH       0.493500
     38 HN0A         3.1670    -3.3770     1.4230 hn         1 0WH       0.493500
     39 H05          2.2540    -0.9230    -1.1690 ha         1 0WH       0.128000
     40 H06         -0.0450    -0.2470    -1.0040 ha         1 0WH       0.120000
     41 H08         -1.0900     4.2660     0.6610 h1         1 0WH       0.063700
     42 H09          1.2420     4.4580     0.8200 hc         1 0WH       0.062700
     43 H11          3.5110     2.5150     1.0560 ha         1 0WH       0.120000
     44 H13         -1.8060     0.6440    -1.6840 hc         1 0WH       0.074200
     45 H13A        -1.9400    -0.2760    -0.1980 hc         1 0WH       0.074200
     46 H15         -3.8690     1.6130    -2.7430 ha         1 0WH       0.118000
     47 H16         -6.2680     1.2510    -3.1660 ha         1 0WH       0.122000
     48 H17         -7.5860    -0.2060    -1.6960 ha         1 0WH       0.131000
     49 H19         -4.0710    -0.9500     0.6640 ha         1 0WH       0.125000
     50 H23          7.4240    -3.8770     0.3500 h5         1 0WH       0.044100
     51 H191        -1.1390     3.3080     2.1360 h1         1 0WH       0.063700
     52 H20          1.1700     3.6400     2.3690 hc         1 0WH       0.062700
     53 C12         -2.1170     1.8410     0.0630 c          1 0WH       0.607100
@<TRIPOS>BOND
     1     1     3 ar  
     2     1     7 1   
     3     1    30 ar  
     4     2    29 1   
     5     3    32 ar  
     6     4    53 2   
     7     5     7 1   
     8     5    33 1   
     9     5    34 1   
    10     5    35 1   
    11     6    29 1   
    12     7     8 1   
    13     8    11 2   
    14     8    36 1   
    15     9    29 1   
    16    10    17 1   
    17    10    18 1   
    18    10    53 1   
    19    11    13 1   
    20    11    30 1   
    21    12    31 1   
    22    12    37 1   
    23    12    38 1   
    24    13    15 ar  
    25    13    21 ar  
    26    14    31 ar  
    27    14    32 ar  
    28    15    16 ar  
    29    15    39 1   
    30    16    17 ar  
    31    16    40 1   
    32    17    20 ar  
    33    18    19 1   
    34    18    41 1   
    35    18    51 1   
    36    19    20 1   
    37    19    42 1   
    38    19    52 1   
    39    20    21 ar  
    40    21    43 1   
    41    22    23 1   
    42    22    44 1   
    43    22    45 1   
    44    22    53 1   
    45    23    24 ar  
    46    23    28 ar  
    47    24    25 ar  
    48    24    46 1   
    49    25    26 ar  
    50    25    47 1   
    51    26    27 ar  
    52    26    48 1   
    53    27    28 ar  
    54    27    29 1   
    55    28    49 1   
    56    30    31 ar  
    57    32    50 1   
@<TRIPOS>SUBSTRUCTURE
     1 0WH         1 TEMP              0 ****  ****    0 ROOT
