@<TRIPOS>MOLECULE
0WL
   50    54     1     0     0
SMALL
abcg2


@<TRIPOS>ATOM
      1 C1           6.6920    -0.7200    -1.4770 ca         1 0WL      -0.218000
      2 C2           6.2480    -1.8000    -0.7370 ca         1 0WL       0.112900
      3 C3           5.8800     0.4030    -1.4610 ca         1 0WL       0.112900
      4 C4          -4.2380     1.0630    -1.3130 cc         1 0WL       0.315900
      5 C5          -3.0030     1.5890    -0.8860 cc         1 0WL      -0.334600
      6 C6          -2.3780     0.5280    -0.2410 cd         1 0WL       0.135400
      7 C7           4.4050    -0.6460    -0.0950 ca         1 0WL       0.142300
      8 C8          -2.3210     2.8410    -0.9790 c          1 0WL       0.620600
      9 C9          -0.5440     1.6670     0.2530 cc         1 0WL       0.517900
     10 C10         -3.1320    -4.2060    -0.0130 c5         1 0WL      -0.079400
     11 C11         -4.1270    -3.8320     1.1000 c5         1 0WL      -0.079400
     12 C12         -3.0270    -2.9440    -0.8610 c5         1 0WL      -0.089900
     13 C13         -4.0490    -2.2960     1.2400 c5         1 0WL      -0.089900
     14 C14          2.8370     0.6070     1.5700 cy         1 0WL       0.161300
     15 C15          1.8350    -0.2080    -0.0700 cy         1 0WL       0.161300
     16 C16          3.1260    -0.6090     0.6720 cy         1 0WL      -0.146000
     17 C17         -3.0020    -1.8530     0.2060 c5         1 0WL       0.091300
     18 C18          0.6710     2.6150     2.2000 c3         1 0WL      -0.092100
     19 C19          0.8150     1.8630     0.8760 c3         1 0WL       0.146200
     20 N20          5.1140    -1.7700    -0.0480 nb         1 0WL      -0.177000
     21 N21          4.7460     0.4430    -0.7780 nb         1 0WL      -0.177000
     22 N22         -4.3460    -0.1960    -0.9580 nd         1 0WL      -0.515800
     23 N23         -1.1600     0.5350     0.3440 nd         1 0WL      -0.605100
     24 N24         -3.2160    -0.5160    -0.3080 na         1 0WL       0.145800
     25 N25         -1.0660     2.7600    -0.3690 ns         1 0WL      -0.435400
     26 N26          1.4490     0.5940     1.0940 nq         1 0WL      -0.695600
     27 H1           7.6160    -0.7490    -2.0350 ha         1 0WL       0.137000
     28 H2           6.8210    -2.7200    -0.6950 h4         1 0WL       0.026600
     29 H3           6.1510     1.2940    -2.0160 h4         1 0WL       0.026600
     30 H4          -5.0320     1.5520    -1.8560 h4         1 0WL       0.051100
     31 H6          -3.4510    -5.0770    -0.5860 hc         1 0WL       0.045950
     32 H7          -5.1370    -4.1280     0.8150 hc         1 0WL       0.045950
     33 H8          -3.8970    -4.3440     2.0340 hc         1 0WL       0.045950
     34 H9          -2.1480    -2.9190    -1.5060 hc         1 0WL       0.059950
     35 H10         -3.9130    -2.8290    -1.4900 hc         1 0WL       0.059950
     36 H11         -5.0110    -1.8390     1.0080 hc         1 0WL       0.059950
     37 H12         -3.7710    -1.9760     2.2440 hc         1 0WL       0.059950
     38 H13          2.9670     0.4770     2.6460 h1         1 0WL       0.060700
     39 H14          3.4000     1.4920     1.2450 h1         1 0WL       0.060700
     40 H15          2.0500     0.3960    -0.9610 h1         1 0WL       0.060700
     41 H16          1.1430    -1.0070    -0.3340 h1         1 0WL       0.060700
     42 H17          3.0020    -1.5480     1.2100 hc         1 0WL       0.097700
     43 H18         -2.0130    -1.8310     0.6670 h1         1 0WL       0.087700
     44 H19          0.0830     2.0330     2.9080 hc         1 0WL       0.050700
     45 H20          1.6540     2.7990     2.6340 hc         1 0WL       0.050700
     46 H21          0.1930     3.5840     2.0590 hc         1 0WL       0.050700
     47 H22          1.4050     2.4940     0.1850 h1         1 0WL       0.034700
     48 H23         -0.5000     3.5990    -0.4070 hn         1 0WL       0.326500
     49 O27         -2.7030     3.8730    -1.5000 o          1 0WL      -0.535000
     50 H5          -2.1550    -4.4430     0.4150 hc         1 0WL       0.045950
@<TRIPOS>BOND
     1     1     2 ar  
     2     1     3 ar  
     3     1    27 1   
     4     2    20 ar  
     5     2    28 1   
     6     3    21 ar  
     7     3    29 1   
     8     4     5 1   
     9     4    22 2   
    10     4    30 1   
    11     5     6 2   
    12     5     8 1   
    13     6    23 1   
    14     6    24 1   
    15     7    16 1   
    16     7    20 ar  
    17     7    21 ar  
    18     8    25 1   
    19     8    49 2   
    20     9    19 1   
    21     9    23 2   
    22     9    25 1   
    23    10    11 1   
    24    10    12 1   
    25    10    31 1   
    26    10    50 1   
    27    11    13 1   
    28    11    32 1   
    29    11    33 1   
    30    12    17 1   
    31    12    34 1   
    32    12    35 1   
    33    13    17 1   
    34    13    36 1   
    35    13    37 1   
    36    14    16 1   
    37    14    26 1   
    38    14    38 1   
    39    14    39 1   
    40    15    16 1   
    41    15    26 1   
    42    15    40 1   
    43    15    41 1   
    44    16    42 1   
    45    17    24 1   
    46    17    43 1   
    47    18    19 1   
    48    18    44 1   
    49    18    45 1   
    50    18    46 1   
    51    19    26 1   
    52    19    47 1   
    53    22    24 1   
    54    25    48 1   
@<TRIPOS>SUBSTRUCTURE
     1 0WL         1 TEMP              0 ****  ****    0 ROOT
