@<TRIPOS>MOLECULE
0WL
   50    54     1     0     0
SMALL
No Charge or Current Charge


@<TRIPOS>ATOM
      1 C1           7.6260     0.6480    -1.5450 ca         1 0WL      -0.218000
      2 C2           7.2280    -0.6760    -1.3070 ca         1 0WL       0.112900
      3 C3           6.7120     1.6650    -1.2280 ca         1 0WL       0.112900
      4 C4          -3.6560     0.6310    -2.0300 cc         1 0WL       0.315900
      5 C5          -2.4750     0.9240    -1.3410 cc         1 0WL      -0.334600
      6 C6          -2.3950     0.0480    -0.3250 cd         1 0WL       0.135400
      7 C7           5.1940     0.0770    -0.5190 ca         1 0WL       0.142300
      8 C8          -1.4960     1.9460    -1.6140 c          1 0WL       0.620600
      9 C9          -0.4160     0.9950     0.3360 cc         1 0WL       0.517900
     10 C10         -4.6820    -4.1230     0.9040 c5         1 0WL      -0.079400
     11 C11         -5.4620    -3.1290     1.8260 c5         1 0WL      -0.079400
     12 C12         -4.1280    -3.2400    -0.2510 c5         1 0WL      -0.089900
     13 C13         -5.3020    -1.7420     1.1400 c5         1 0WL      -0.089900
     14 C14          3.3630     0.5270     1.3330 cy         1 0WL       0.161300
     15 C15          2.5740     0.4210    -0.5980 cy         1 0WL       0.161300
     16 C16          3.8230    -0.2620     0.0590 cy         1 0WL      -0.146000
     17 C17         -3.9160    -1.8760     0.4550 c5         1 0WL       0.091300
     18 C18          0.5610     0.9400     2.7090 c3         1 0WL      -0.092100
     19 C19          0.8430     1.1620     1.2040 c3         1 0WL       0.146200
     20 N20          6.0140    -0.9640    -0.7960 nb         1 0WL      -0.177000
     21 N21          5.4970     1.3830    -0.7170 nb         1 0WL      -0.177000
     22 N22         -4.3320    -0.3830    -1.5100 nd         1 0WL      -0.515800
     23 N23         -1.3370     0.0450     0.5780 nd         1 0WL      -0.605100
     24 N24         -3.5320    -0.7600    -0.4220 na         1 0WL       0.145800
     25 N25         -0.4930     1.8990    -0.7070 ns         1 0WL      -0.435400
     26 N26          1.9920     0.3300     0.7740 nq         1 0WL      -0.695600
     27 H1           8.6050     0.8780    -1.9570 ha         1 0WL       0.137000
     28 H2           7.8840    -1.5170    -1.5280 h4         1 0WL       0.026600
     29 H3           6.9510     2.7160    -1.3850 h4         1 0WL       0.026600
     30 H4          -4.0490     1.1300    -2.9060 h4         1 0WL       0.051100
     31 H6          -5.3240    -4.9270     0.5260 hc         1 0WL       0.045950
     32 H7          -6.5170    -3.4070     1.9340 hc         1 0WL       0.045950
     33 H8          -5.0320    -3.1210     2.8350 hc         1 0WL       0.045950
     34 H9          -3.1990    -3.6410    -0.6710 hc         1 0WL       0.059950
     35 H10         -4.8490    -3.1650    -1.0750 hc         1 0WL       0.059950
     36 H11         -6.1010    -1.5640     0.4100 hc         1 0WL       0.059950
     37 H12         -5.3320    -0.9170     1.8600 hc         1 0WL       0.059950
     38 H13          3.5740     0.0270     2.2860 h1         1 0WL       0.060700
     39 H14          3.7050     1.5700     1.3710 h1         1 0WL       0.060700
     40 H15          2.7550     1.4420    -0.9610 h1         1 0WL       0.060700
     41 H16          2.0780    -0.1730    -1.3750 h1         1 0WL       0.060700
     42 H17          3.6860    -1.3440     0.1740 hc         1 0WL       0.097700
     43 H18         -3.1380    -1.9800     1.2230 h1         1 0WL       0.087700
     44 H19          0.3090    -0.1080     2.9100 hc         1 0WL       0.050700
     45 H20          1.4340     1.2060     3.3160 hc         1 0WL       0.050700
     46 H21         -0.2780     1.5650     3.0380 hc         1 0WL       0.050700
     47 H22          1.1590     2.2090     1.1050 h1         1 0WL       0.034700
     48 H23          0.2420     2.5790    -0.8240 hn         1 0WL       0.326500
     49 O27         -1.5410     2.7520    -2.5270 o          1 0WL      -0.535000
     50 H5          -3.8660    -4.6030     1.4580 hc         1 0WL       0.045950
@<TRIPOS>BOND
     1     1     2 ar  
     2     1     3 ar  
     3     1    27 1   
     4     2    20 ar  
     5     2    28 1   
     6     3    21 ar  
     7     3    29 1   
     8     4     5 1   
     9     4    22 2   
    10     4    30 1   
    11     5     6 2   
    12     5     8 1   
    13     6    23 1   
    14     6    24 1   
    15     7    16 1   
    16     7    20 ar  
    17     7    21 ar  
    18     8    25 1   
    19     8    49 2   
    20     9    19 1   
    21     9    23 2   
    22     9    25 1   
    23    10    11 1   
    24    10    12 1   
    25    10    31 1   
    26    10    50 1   
    27    11    13 1   
    28    11    32 1   
    29    11    33 1   
    30    12    17 1   
    31    12    34 1   
    32    12    35 1   
    33    13    17 1   
    34    13    36 1   
    35    13    37 1   
    36    14    16 1   
    37    14    26 1   
    38    14    38 1   
    39    14    39 1   
    40    15    16 1   
    41    15    26 1   
    42    15    40 1   
    43    15    41 1   
    44    16    42 1   
    45    17    24 1   
    46    17    43 1   
    47    18    19 1   
    48    18    44 1   
    49    18    45 1   
    50    18    46 1   
    51    19    26 1   
    52    19    47 1   
    53    22    24 1   
    54    25    48 1   
@<TRIPOS>SUBSTRUCTURE
     1 0WL         1 TEMP              0 ****  ****    0 ROOT
