@<TRIPOS>MOLECULE
0WM
   59    62     1     0     0
SMALL
abcg2


@<TRIPOS>ATOM
      1 C1          -2.2370     3.7340     0.5750 ca         1 0WM       0.169900
      2 N2          -2.8870     2.5700     0.4450 nb         1 0WM      -0.278000
      3 N3          -0.9510     3.9260     0.6050 nb         1 0WM      -0.206000
      4 C4          -2.1680     1.4750     0.3270 ca         1 0WM       0.410900
      5 C5          -0.1800     2.8140     0.4850 ca         1 0WM       0.067000
      6 C6          -0.7340     1.5310     0.3300 ca         1 0WM      -0.173000
      7 C7           1.4800     0.5580     0.2330 ca         1 0WM      -0.043000
      8 C8           0.1150     0.4140     0.2020 ca         1 0WM      -0.096000
      9 C9           2.0370     1.8670     0.3990 ca         1 0WM       0.140100
     10 C10          1.2200     2.9600     0.5180 ca         1 0WM      -0.184000
     11 N11         -2.7830     0.2740     0.2070 nu         1 0WM      -0.927900
     12 C12         -6.4940     0.3680     0.3040 ca         1 0WM       0.093000
     13 C13         -6.7640    -0.9850     0.2270 ca         1 0WM       0.150000
     14 C14         -5.1890     0.8380     0.3000 ca         1 0WM      -0.100000
     15 C15         -5.7270    -1.8930     0.1440 ca         1 0WM      -0.116000
     16 C16         -4.1340    -0.0700     0.2180 ca         1 0WM       0.303000
     17 C17         -4.4230    -1.4370     0.1400 ca         1 0WM      -0.144000
     18 CL1         -7.8060     1.4810     0.4080 cl         1 0WM      -0.171000
     19 O20          3.3740     1.8940     0.4340 os         1 0WM      -0.364100
     20 C21          4.0720     3.1320     0.5680 c5         1 0WM       0.142300
     21 C22          4.1210     3.8950    -0.7480 c5         1 0WM       0.126600
     22 O23          5.1800     3.3260    -1.4970 os         1 0WM      -0.453000
     23 C24          5.9960     2.5140    -0.6610 c5         1 0WM       0.157600
     24 C25          5.5380     2.7930     0.7640 c5         1 0WM      -0.116400
     25 N26          2.3950    -0.4820     0.1300 ns         1 0WM      -0.136000
     26 C27          2.1610    -1.7970    -0.1510 c          1 0WM       0.618300
     27 C28          3.3890    -2.6150    -0.1520 ce         1 0WM      -0.317200
     28 O29          1.0480    -2.2470    -0.3720 o          1 0WM      -0.600100
     29 C30          3.3580    -3.9210    -0.4230 c2         1 0WM      -0.107200
     30 C31          4.5740    -4.7910    -0.4480 c3         1 0WM       0.180000
     31 N32          4.3420    -6.0540     0.2370 n3         1 0WM      -0.706600
     32 C33          3.5830    -6.9790    -0.5850 c3         1 0WM       0.145600
     33 C34          5.6000    -6.6480     0.6560 c3         1 0WM       0.145600
     34 H1          -2.8700     4.6110     0.6670 h5         1 0WM       0.047100
     35 H8          -0.2780    -0.5820     0.0760 ha         1 0WM       0.148000
     36 H10          1.6130     3.9600     0.6420 ha         1 0WM       0.139000
     37 HN11        -2.1740    -0.5220     0.1260 hn         1 0WM       0.507000
     38 H14         -5.0020     1.8970     0.3610 ha         1 0WM       0.172000
     39 H15         -5.9370    -2.9520     0.0860 ha         1 0WM       0.136000
     40 H17         -3.6180    -2.1600     0.0790 ha         1 0WM       0.122000
     41 H21          3.6520     3.7150     1.3910 h1         1 0WM       0.073700
     42 H22          3.1930     3.8360    -1.3230 h1         1 0WM       0.061200
     43 H22A         4.3130     4.9530    -0.5360 h1         1 0WM       0.061200
     44 H24          5.8640     1.4590    -0.9220 h1         1 0WM       0.049200
     45 H24A         7.0460     2.7670    -0.8160 h1         1 0WM       0.049200
     46 H25          6.0460     3.6670     1.1740 hc         1 0WM       0.070200
     47 H25A         5.6980     1.9600     1.4480 hc         1 0WM       0.070200
     48 HN26         3.3580    -0.2190     0.2710 hn         1 0WM       0.170000
     49 H28          4.3300    -2.1270     0.0840 ha         1 0WM       0.179000
     50 H30          2.4030    -4.3810    -0.6580 ha         1 0WM       0.199000
     51 H31          4.8800    -4.9420    -1.4970 h1         1 0WM       0.045200
     52 H31A         5.3970    -4.2690     0.0430 h1         1 0WM       0.045200
     53 H33          4.0980    -7.2370    -1.5210 h1         1 0WM       0.034200
     54 H33A         3.4010    -7.9000    -0.0310 h1         1 0WM       0.034200
     55 H33B         2.6100    -6.5610    -0.8470 h1         1 0WM       0.034200
     56 H34          6.1190    -5.9660     1.3300 h1         1 0WM       0.034200
     57 H34A         5.4040    -7.5780     1.1900 h1         1 0WM       0.034200
     58 H34B         6.2710    -6.8740    -0.1830 h1         1 0WM       0.034200
     59 F18         -8.0280    -1.4110     0.2330 f          1 0WM      -0.162000
@<TRIPOS>BOND
     1     1     2 ar  
     2     1     3 ar  
     3     1    34 1   
     4     2     4 ar  
     5     3     5 ar  
     6     4     6 ar  
     7     4    11 1   
     8     5     6 ar  
     9     5    10 ar  
    10     6     8 ar  
    11     7     8 ar  
    12     7     9 ar  
    13     7    25 1   
    14     8    35 1   
    15     9    10 ar  
    16     9    19 1   
    17    10    36 1   
    18    11    16 1   
    19    11    37 1   
    20    12    13 ar  
    21    12    14 ar  
    22    12    18 1   
    23    13    15 ar  
    24    13    59 1   
    25    14    16 ar  
    26    14    38 1   
    27    15    17 ar  
    28    15    39 1   
    29    16    17 ar  
    30    17    40 1   
    31    19    20 1   
    32    20    21 1   
    33    20    24 1   
    34    20    41 1   
    35    21    22 1   
    36    21    42 1   
    37    21    43 1   
    38    22    23 1   
    39    23    24 1   
    40    23    44 1   
    41    23    45 1   
    42    24    46 1   
    43    24    47 1   
    44    25    26 1   
    45    25    48 1   
    46    26    27 1   
    47    26    28 2   
    48    27    29 2   
    49    27    49 1   
    50    29    30 1   
    51    29    50 1   
    52    30    31 1   
    53    30    51 1   
    54    30    52 1   
    55    31    32 1   
    56    31    33 1   
    57    32    53 1   
    58    32    54 1   
    59    32    55 1   
    60    33    56 1   
    61    33    57 1   
    62    33    58 1   
@<TRIPOS>SUBSTRUCTURE
     1 0WM         1 TEMP              0 ****  ****    0 ROOT
