@<TRIPOS>MOLECULE
0WM
   59    62     1     0     0
SMALL
No Charge or Current Charge


@<TRIPOS>ATOM
      1 C1          -2.2420     3.5230     1.8170 ca         1 0WM       0.169900
      2 N2          -2.9510     2.4960     1.3160 nb         1 0WM      -0.278000
      3 N3          -0.9010     3.5920     1.9300 nb         1 0WM      -0.206000
      4 C4          -2.2530     1.4350     0.8780 ca         1 0WM       0.410900
      5 C5          -0.1880     2.5320     1.4980 ca         1 0WM       0.067000
      6 C6          -0.8370     1.3990     0.9530 ca         1 0WM      -0.173000
      7 C7           1.3350     0.3090     0.6100 ca         1 0WM      -0.043000
      8 C8          -0.0730     0.2930     0.5100 ca         1 0WM      -0.096000
      9 C9           1.9750     1.4530     1.1300 ca         1 0WM       0.140100
     10 C10          1.2120     2.5440     1.5890 ca         1 0WM      -0.184000
     11 N11         -2.9980     0.3520     0.4040 nu         1 0WM      -0.927900
     12 C12         -6.4080     1.0470    -0.9550 ca         1 0WM       0.093000
     13 C13         -6.9820    -0.2350    -0.8600 ca         1 0WM       0.150000
     14 C14         -5.0830     1.2560    -0.5350 ca         1 0WM      -0.100000
     15 C15         -6.2280    -1.3050    -0.3530 ca         1 0WM      -0.116000
     16 C16         -4.3250     0.1910    -0.0110 ca         1 0WM       0.303000
     17 C17         -4.9010    -1.0900     0.0650 ca         1 0WM      -0.144000
     18 Cl1         -7.3320     2.4010    -1.6050 cl         1 0WM      -0.171000
     19 O20          3.3570     1.4500     1.2270 os         1 0WM      -0.364100
     20 C21          3.9300     2.6030     0.5410 c5         1 0WM       0.142300
     21 C22          3.7400     2.4430    -1.0120 c5         1 0WM       0.126600
     22 O23          5.0650     2.2200    -1.5490 os         1 0WM      -0.453000
     23 C24          5.8480     1.6260    -0.5020 c5         1 0WM       0.157600
     24 C25          5.4710     2.4950     0.7170 c5         1 0WM      -0.116400
     25 N26          2.1620    -0.7750     0.1910 ns         1 0WM      -0.136000
     26 C27          1.8820    -2.0330    -0.3200 c          1 0WM       0.618300
     27 C28          3.1000    -2.8380    -0.6180 ce         1 0WM      -0.317200
     28 O29          0.7540    -2.4790    -0.4950 o          1 0WM      -0.600100
     29 C30          3.0810    -4.1460    -0.9750 c2         1 0WM      -0.107200
     30 C31          4.2990    -5.0030    -1.2610 c3         1 0WM       0.180000
     31 N32          5.2900    -4.9810    -0.1560 n3         1 0WM      -0.706600
     32 C33          4.7600    -5.5230     1.1180 c3         1 0WM       0.145600
     33 C34          6.5740    -5.6090    -0.5390 c3         1 0WM       0.145600
     34 H1          -2.8070     4.3830     2.1700 h5         1 0WM       0.047100
     35 H8          -0.5740    -0.5670     0.0820 ha         1 0WM       0.148000
     36 H10          1.7010     3.4040     2.0370 ha         1 0WM       0.139000
     37 HN11        -2.4850    -0.5240     0.4520 hn         1 0WM       0.507000
     38 H14         -4.6470     2.2430    -0.6370 ha         1 0WM       0.172000
     39 H15         -6.6710    -2.2960    -0.2860 ha         1 0WM       0.136000
     40 H17         -4.3240    -1.9240     0.4570 ha         1 0WM       0.122000
     41 H21          3.5390     3.5480     0.9410 h1         1 0WM       0.073700
     42 H22          3.1040     1.5870    -1.2710 h1         1 0WM       0.061200
     43 H22A         3.3110     3.3440    -1.4700 h1         1 0WM       0.061200
     44 H24          5.5500     0.5760    -0.3720 h1         1 0WM       0.049200
     45 H24A         6.9160     1.6720    -0.7520 h1         1 0WM       0.049200
     46 H25          5.9480     3.4790     0.6580 hc         1 0WM       0.070200
     47 H25A         5.7650     2.0400     1.6690 hc         1 0WM       0.070200
     48 HN26         3.1500    -0.5850     0.2960 hn         1 0WM       0.170000
     49 H28          4.0540    -2.3280    -0.4940 ha         1 0WM       0.179000
     50 H30          2.1370    -4.6820    -1.0850 ha         1 0WM       0.199000
     51 H31          3.9780    -6.0350    -1.4600 h1         1 0WM       0.045200
     52 H31A         4.7650    -4.6320    -2.1850 h1         1 0WM       0.045200
     53 H33          4.4860    -6.5810     1.0100 h1         1 0WM       0.034200
     54 H33A         5.5110    -5.4430     1.9150 h1         1 0WM       0.034200
     55 H33B         3.8700    -4.9690     1.4440 h1         1 0WM       0.034200
     56 H34          6.9880    -5.1310    -1.4370 h1         1 0WM       0.034200
     57 H34A         7.3120    -5.5060     0.2670 h1         1 0WM       0.034200
     58 H34B         6.4410    -6.6790    -0.7500 h1         1 0WM       0.034200
     59 F18         -8.2560    -0.4490    -1.2610 f          1 0WM      -0.162000
@<TRIPOS>BOND
     1     1     2 ar  
     2     1     3 ar  
     3     1    34 1   
     4     2     4 ar  
     5     3     5 ar  
     6     4     6 ar  
     7     4    11 1   
     8     5     6 ar  
     9     5    10 ar  
    10     6     8 ar  
    11     7     8 ar  
    12     7     9 ar  
    13     7    25 1   
    14     8    35 1   
    15     9    10 ar  
    16     9    19 1   
    17    10    36 1   
    18    11    16 1   
    19    11    37 1   
    20    12    13 ar  
    21    12    14 ar  
    22    12    18 1   
    23    13    15 ar  
    24    13    59 1   
    25    14    16 ar  
    26    14    38 1   
    27    15    17 ar  
    28    15    39 1   
    29    16    17 ar  
    30    17    40 1   
    31    19    20 1   
    32    20    21 1   
    33    20    24 1   
    34    20    41 1   
    35    21    22 1   
    36    21    42 1   
    37    21    43 1   
    38    22    23 1   
    39    23    24 1   
    40    23    44 1   
    41    23    45 1   
    42    24    46 1   
    43    24    47 1   
    44    25    26 1   
    45    25    48 1   
    46    26    27 1   
    47    26    28 2   
    48    27    29 2   
    49    27    49 1   
    50    29    30 1   
    51    29    50 1   
    52    30    31 1   
    53    30    51 1   
    54    30    52 1   
    55    31    32 1   
    56    31    33 1   
    57    32    53 1   
    58    32    54 1   
    59    32    55 1   
    60    33    56 1   
    61    33    57 1   
    62    33    58 1   
@<TRIPOS>SUBSTRUCTURE
     1 0WM         1 TEMP              0 ****  ****    0 ROOT
