@<TRIPOS>MOLECULE
0WN
   61    64     1     0     0
SMALL
bcc


@<TRIPOS>ATOM
      1 C1           2.5130     3.4920    -0.6760 ca         1 0WN       0.696900
      2 N2           3.0660     2.2900    -0.4680 nb         1 0WN      -0.804000
      3 N3           1.2460     3.7840    -0.7290 nb         1 0WN      -0.732000
      4 C4           2.2610     1.2640    -0.2930 ca         1 0WN       0.739200
      5 C5           0.3890     2.7460    -0.5490 ca         1 0WN       0.460600
      6 C6           0.8360     1.4330    -0.3200 ca         1 0WN      -0.304600
      7 C7          -1.4490     0.6500    -0.1790 ca         1 0WN       0.047600
      8 C8          -0.1000     0.3960    -0.1360 ca         1 0WN      -0.111000
      9 C9          -1.8970     1.9880    -0.4150 ca         1 0WN       0.140100
     10 C10         -0.9950     3.0030    -0.5940 ca         1 0WN      -0.266300
     11 N11          2.7810     0.0300    -0.0880 nu         1 0WN      -0.733300
     12 C12          6.4890    -0.1450    -0.0420 ca         1 0WN       0.001400
     13 C13          6.6560    -1.5050     0.1320 ca         1 0WN       0.114900
     14 C14          5.2230     0.4150    -0.1210 ca         1 0WN      -0.118000
     15 C15          5.5540    -2.3310     0.2290 ca         1 0WN      -0.133000
     16 C16          4.1020    -0.4100    -0.0260 ca         1 0WN       0.163600
     17 C17          4.2870    -1.7860     0.1510 ca         1 0WN      -0.162000
     18 CL1          7.8810     0.8640    -0.1620 cl         1 0WN      -0.078400
     19 O20         -3.2280     2.1230    -0.4500 os         1 0WN      -0.343900
     20 C21         -3.8270     3.4160    -0.5490 c5         1 0WN       0.119100
     21 C22         -3.7540     4.1690     0.7720 c5         1 0WN       0.103400
     22 O23         -4.8170     3.6760     1.5670 os         1 0WN      -0.405600
     23 C24         -5.7350     2.9430     0.7650 c5         1 0WN       0.134400
     24 C25         -5.3230     3.1980    -0.6790 c5         1 0WN      -0.116400
     25 N26         -2.4490    -0.3040    -0.0140 ns         1 0WN      -0.467100
     26 C27         -2.3290    -1.6260     0.2850 c          1 0WN       0.677100
     27 C28         -3.6550    -2.3320     0.4540 c3         1 0WN      -0.158400
     28 O29         -1.2580    -2.1880     0.4270 o          1 0WN      -0.590100
     29 C30         -3.5880    -3.8180     0.1320 c3         1 0WN      -0.067400
     30 C31         -4.9410    -4.4790     0.3650 c3         1 0WN       0.164800
     31 N32         -4.9420    -5.9040     0.0880 n3         1 0WN      -0.709600
     32 C33         -6.1070    -6.5420     0.6650 c3         1 0WN       0.148600
     33 C34         -4.8620    -6.1890    -1.3290 c3         1 0WN       0.148600
     34 H1           3.2150     4.3070    -0.8170 h5         1 0WN       0.048100
     35 H2           0.2160    -0.6180     0.0470 ha         1 0WN       0.165000
     36 H3          -1.3070     4.0220    -0.7770 ha         1 0WN       0.158000
     37 H4           2.1120    -0.7140     0.0250 hn         1 0WN       0.451800
     38 H5           5.1150     1.4780    -0.2570 ha         1 0WN       0.190000
     39 H6           5.6850    -3.3970     0.3620 ha         1 0WN       0.154000
     40 H7           3.4310    -2.4440     0.2250 ha         1 0WN       0.140000
     41 H8          -3.3980     3.9690    -1.3870 h1         1 0WN       0.073700
     42 H9          -2.8070     4.0340     1.3000 h1         1 0WN       0.062200
     43 H10         -3.8730     5.2410     0.5740 h1         1 0WN       0.062200
     44 H11         -5.6790     1.8780     1.0130 h1         1 0WN       0.049200
     45 H12         -6.7540     3.2790     0.9700 h1         1 0WN       0.049200
     46 H13         -5.7760     4.1150    -1.0590 hc         1 0WN       0.071200
     47 H14         -5.5830     2.3880    -1.3590 hc         1 0WN       0.071200
     48 H15         -3.3900     0.0450    -0.1160 hn         1 0WN       0.335500
     49 H16         -3.9670    -2.1880     1.4950 hc         1 0WN       0.060200
     50 H17         -4.4210    -1.8490    -0.1580 hc         1 0WN       0.060200
     51 H18         -3.2680    -3.9440    -0.9050 hc         1 0WN       0.063700
     52 H19         -2.8400    -4.3080     0.7560 hc         1 0WN       0.063700
     53 H20         -5.2110    -4.3420     1.4170 h1         1 0WN       0.027200
     54 H21         -5.7170    -3.9540    -0.2210 h1         1 0WN       0.027200
     55 H23         -6.0710    -7.6170     0.4870 h1         1 0WN       0.031200
     56 H24         -6.1290    -6.3830     1.7440 h1         1 0WN       0.031200
     57 H25         -7.0570    -6.1680     0.2510 h1         1 0WN       0.031200
     58 H26         -3.9560    -5.7690    -1.7640 h1         1 0WN       0.031200
     59 H27         -4.8290    -7.2670    -1.4880 h1         1 0WN       0.031200
     60 H28         -5.7210    -5.7930    -1.8950 h1         1 0WN       0.031200
     61 F18          7.8880    -2.0170     0.2030 f          1 0WN      -0.126900
@<TRIPOS>BOND
     1     1     2 ar  
     2     1     3 ar  
     3     1    34 1   
     4     2     4 ar  
     5     3     5 ar  
     6     4     6 ar  
     7     4    11 1   
     8     5     6 ar  
     9     5    10 ar  
    10     6     8 ar  
    11     7     8 ar  
    12     7     9 ar  
    13     7    25 1   
    14     8    35 1   
    15     9    10 ar  
    16     9    19 1   
    17    10    36 1   
    18    11    16 1   
    19    11    37 1   
    20    12    13 ar  
    21    12    14 ar  
    22    12    18 1   
    23    13    15 ar  
    24    13    61 1   
    25    14    16 ar  
    26    14    38 1   
    27    15    17 ar  
    28    15    39 1   
    29    16    17 ar  
    30    17    40 1   
    31    19    20 1   
    32    20    21 1   
    33    20    24 1   
    34    20    41 1   
    35    21    22 1   
    36    21    42 1   
    37    21    43 1   
    38    22    23 1   
    39    23    24 1   
    40    23    44 1   
    41    23    45 1   
    42    24    46 1   
    43    24    47 1   
    44    25    26 1   
    45    25    48 1   
    46    26    27 1   
    47    26    28 2   
    48    27    29 1   
    49    27    49 1   
    50    27    50 1   
    51    29    30 1   
    52    29    51 1   
    53    29    52 1   
    54    30    31 1   
    55    30    53 1   
    56    30    54 1   
    57    31    32 1   
    58    31    33 1   
    59    32    55 1   
    60    32    56 1   
    61    32    57 1   
    62    33    58 1   
    63    33    59 1   
    64    33    60 1   
@<TRIPOS>SUBSTRUCTURE
     1 0WN         1 TEMP              0 ****  ****    0 ROOT
