@<TRIPOS>MOLECULE
0WN
   61    64     1     0     0
SMALL
No Charge or Current Charge


@<TRIPOS>ATOM
      1 C1           2.4800     3.2050    -1.9250 ca         1 0WN       0.170900
      2 N2           3.0950     2.1410    -1.3780 nb         1 0WN      -0.278000
      3 N3           1.1520     3.4130    -2.0000 nb         1 0WN      -0.206000
      4 C4           2.3050     1.1930    -0.8460 ca         1 0WN       0.410900
      5 C5           0.3460     2.4680    -1.4730 ca         1 0WN       0.067000
      6 C6           0.8910     1.3080    -0.8720 ca         1 0WN      -0.174000
      7 C7          -1.3700     0.4880    -0.3840 ca         1 0WN      -0.045000
      8 C8           0.0310     0.3230    -0.3300 ca         1 0WN      -0.093000
      9 C9          -1.9030     1.6580    -0.9640 ca         1 0WN       0.140100
     10 C10         -1.0470     2.6270    -1.5210 ca         1 0WN      -0.183000
     11 N11          2.9480     0.0690    -0.3220 nu         1 0WN      -0.926900
     12 C12          6.4620     0.4760     0.8790 ca         1 0WN       0.093000
     13 C13          6.8920    -0.8640     0.8540 ca         1 0WN       0.150000
     14 C14          5.1510     0.8000     0.4880 ca         1 0WN      -0.100000
     15 C15          6.0100    -1.8770     0.4450 ca         1 0WN      -0.115000
     16 C16          4.2650    -0.2080     0.0610 ca         1 0WN       0.302000
     17 C17          4.6980    -1.5470     0.0550 ca         1 0WN      -0.144000
     18 Cl1          7.5490     1.7610     1.4060 cl         1 0WN      -0.170000
     19 O20         -3.2800     1.7980    -1.0180 os         1 0WN      -0.367100
     20 C21         -3.7020     3.0480    -0.3930 c5         1 0WN       0.142300
     21 C22         -3.4750     2.9640     1.1610 c5         1 0WN       0.126600
     22 O23         -4.7950     2.9110     1.7500 os         1 0WN      -0.452000
     23 C24         -5.6730     2.3450     0.7640 c5         1 0WN       0.157600
     24 C25         -5.2500     3.0960    -0.5160 c5         1 0WN      -0.116400
     25 N26         -2.2930    -0.4680     0.1330 ns         1 0WN      -0.141000
     26 C27         -2.1310    -1.6950     0.7600 c          1 0WN       0.610100
     27 C28         -3.4490    -2.3720     1.1640 c3         1 0WN      -0.158400
     28 O29         -1.0480    -2.2090     1.0110 o          1 0WN      -0.590100
     29 C30         -3.7760    -3.5770     0.2490 c3         1 0WN      -0.067400
     30 C31         -5.1000    -4.2810     0.6300 c3         1 0WN       0.164800
     31 N32         -5.3830    -5.5290    -0.1230 n3         1 0WN      -0.709600
     32 C33         -6.5230    -6.2770     0.4530 c3         1 0WN       0.148600
     33 C34         -5.5390    -5.3290    -1.5840 c3         1 0WN       0.148600
     34 H1           3.1200     3.9730    -2.3550 h5         1 0WN       0.048100
     35 H2           0.4540    -0.5590     0.1360 ha         1 0WN       0.147000
     36 H3          -1.4580     3.5040    -2.0120 ha         1 0WN       0.140000
     37 H4           2.3420    -0.7480    -0.2940 hn         1 0WN       0.507000
     38 H5           4.8270     1.8330     0.5350 ha         1 0WN       0.172000
     39 H6           6.3420    -2.9120     0.4320 ha         1 0WN       0.136000
     40 H7           4.0210    -2.3360    -0.2610 ha         1 0WN       0.122000
     41 H8          -3.2270     3.9170    -0.8640 h1         1 0WN       0.073700
     42 H9          -2.9190     2.0640     1.4560 h1         1 0WN       0.062200
     43 H10         -2.9420     3.8420     1.5480 h1         1 0WN       0.062200
     44 H11         -5.4920     1.2630     0.6900 h1         1 0WN       0.049200
     45 H12         -6.7210     2.5180     1.0410 h1         1 0WN       0.049200
     46 H13         -5.6180     4.1280    -0.5040 hc         1 0WN       0.071200
     47 H14         -5.6260     2.6220    -1.4300 hc         1 0WN       0.071200
     48 H15         -3.2600    -0.1950     0.0070 hn         1 0WN       0.169000
     49 H16         -3.3530    -2.7340     2.1950 hc         1 0WN       0.060200
     50 H17         -4.2760    -1.6540     1.1000 hc         1 0WN       0.060200
     51 H18         -3.8290    -3.2270    -0.7890 hc         1 0WN       0.063700
     52 H19         -2.9580    -4.3070     0.3030 hc         1 0WN       0.063700
     53 H20         -5.0490    -4.5150     1.7020 h1         1 0WN       0.027200
     54 H21         -5.9270    -3.5690     0.4980 h1         1 0WN       0.027200
     55 H23         -6.6610    -7.2350    -0.0650 h1         1 0WN       0.031200
     56 H24         -6.3500    -6.4920     1.5160 h1         1 0WN       0.031200
     57 H25         -7.4540    -5.7000     0.3660 h1         1 0WN       0.031200
     58 H26         -4.6220    -4.9260    -2.0320 h1         1 0WN       0.031200
     59 H27         -5.7550    -6.2830    -2.0840 h1         1 0WN       0.031200
     60 H28         -6.3640    -4.6360    -1.7990 h1         1 0WN       0.031200
     61 F18          8.1510    -1.1890     1.2290 f          1 0WN      -0.162000
@<TRIPOS>BOND
     1     1     2 ar  
     2     1     3 ar  
     3     1    34 1   
     4     2     4 ar  
     5     3     5 ar  
     6     4     6 ar  
     7     4    11 1   
     8     5     6 ar  
     9     5    10 ar  
    10     6     8 ar  
    11     7     8 ar  
    12     7     9 ar  
    13     7    25 1   
    14     8    35 1   
    15     9    10 ar  
    16     9    19 1   
    17    10    36 1   
    18    11    16 1   
    19    11    37 1   
    20    12    13 ar  
    21    12    14 ar  
    22    12    18 1   
    23    13    15 ar  
    24    13    61 1   
    25    14    16 ar  
    26    14    38 1   
    27    15    17 ar  
    28    15    39 1   
    29    16    17 ar  
    30    17    40 1   
    31    19    20 1   
    32    20    21 1   
    33    20    24 1   
    34    20    41 1   
    35    21    22 1   
    36    21    42 1   
    37    21    43 1   
    38    22    23 1   
    39    23    24 1   
    40    23    44 1   
    41    23    45 1   
    42    24    46 1   
    43    24    47 1   
    44    25    26 1   
    45    25    48 1   
    46    26    27 1   
    47    26    28 2   
    48    27    29 1   
    49    27    49 1   
    50    27    50 1   
    51    29    30 1   
    52    29    51 1   
    53    29    52 1   
    54    30    31 1   
    55    30    53 1   
    56    30    54 1   
    57    31    32 1   
    58    31    33 1   
    59    32    55 1   
    60    32    56 1   
    61    32    57 1   
    62    33    58 1   
    63    33    59 1   
    64    33    60 1   
@<TRIPOS>SUBSTRUCTURE
     1 0WN         1 TEMP              0 ****  ****    0 ROOT
