@<TRIPOS>MOLECULE
0WO
   48    50     1     0     0
SMALL
No Charge or Current Charge


@<TRIPOS>ATOM
      1 C           -0.9940    -3.3180     0.7820 c          1 0WO       0.718000
      2 N            0.5490    -1.4880     0.1420 ns         1 0WO      -0.423900
      3 OXT         -0.9960    -3.9440    -0.2690 o          1 0WO      -0.720000
      4 CA          -0.7930    -1.7880     0.7120 c3         1 0WO      -0.049300
      5 CB          -1.9760    -1.1540    -0.0590 c5         1 0WO       0.361500
      6 CAI          3.5640     4.3240     2.2120 ca         1 0WO      -0.113000
      7 CAJ          4.6810     3.4730     2.2110 ca         1 0WO      -0.123500
      8 CAK          2.4420     4.0040     1.4300 ca         1 0WO      -0.123500
      9 CAL          4.6740     2.3000     1.4360 ca         1 0WO      -0.069500
     10 CAM          2.4330     2.8310     0.6550 ca         1 0WO      -0.069500
     11 NAN          4.5980     0.5530    -0.9820 nc         1 0WO      -0.407300
     12 NAP         -1.7720     0.2820    -0.3300 n7         1 0WO      -0.839400
     13 OAQ          4.2920    -0.6590    -1.6800 os         1 0WO      -0.098700
     14 SAR         -3.4870    -1.1170     1.0040 ss         1 0WO      -0.490000
     15 CAT         -3.4360     0.4440    -2.4110 c          1 0WO       0.731000
     16 CAU          1.3410    -0.4190     0.4980 c          1 0WO       0.629700
     17 CAV          3.0790    -1.1280    -1.2430 cc         1 0WO       0.202300
     18 CAW          3.5400     1.9550     0.6700 ca         1 0WO      -0.141500
     19 CAX          3.5600     0.7550    -0.1880 cd         1 0WO       0.374500
     20 CAY          2.5910    -0.2730    -0.2870 cd         1 0WO      -0.251600
     21 CBB         -3.0720     0.8080    -0.8980 c5         1 0WO       0.041500
     22 CBC         -4.1970     0.3510     0.1090 c5         1 0WO       0.071000
     23 O           -1.0020    -3.8540     1.8810 o          1 0WO      -0.720000
     24 HN           0.8750    -2.0670    -0.6180 hn         1 0WO       0.320500
     25 HA          -0.8180    -1.4110     1.7420 h1         1 0WO       0.064700
     26 HB          -2.1710    -1.7250    -0.9780 h2         1 0WO       0.119700
     27 HAA          1.6430    -2.2810    -2.3720 hc         1 0WO       0.070700
     28 HAAA         3.3150    -2.8170    -2.5580 hc         1 0WO       0.070700
     29 HAAB         2.4520    -3.1880    -1.0630 hc         1 0WO       0.070700
     30 HAB         -5.1840     1.0970     1.9320 hc         1 0WO       0.023033
     31 HABA        -3.5550     1.7410     1.6900 hc         1 0WO       0.023033
     32 HABB        -4.8990     2.3460     0.7100 hc         1 0WO       0.023033
     33 HAC         -6.2770    -0.3560     0.2470 hc         1 0WO       0.023033
     34 HACA        -5.9940     0.7560    -1.0990 hc         1 0WO       0.023033
     35 HACB        -5.4400    -0.9270    -1.1940 hc         1 0WO       0.023033
     36 HAI          3.5700     5.2320     2.8110 ha         1 0WO       0.097000
     37 HAJ          5.5560     3.7250     2.8070 ha         1 0WO       0.116500
     38 HAK          1.5800     4.6680     1.4190 ha         1 0WO       0.116500
     39 HAL          5.5500     1.6540     1.4360 ha         1 0WO       0.139000
     40 HAM          1.5650     2.6050     0.0390 ha         1 0WO       0.139000
     41 HNAP        -1.6000     0.7220     0.5770 hn         1 0WO       0.395000
     42 HBB         -3.0170     1.9050    -0.8910 h1         1 0WO       0.036700
     43 CAB         -4.4750     1.4460     1.1720 c3         1 0WO      -0.060100
     44 CAC         -5.5520    -0.0670    -0.5240 c3         1 0WO      -0.060100
     45 OAE         -3.1990    -0.6700    -2.8630 o          1 0WO      -0.734000
     46 OAF          1.0240     0.3300     1.4100 o          1 0WO      -0.645100
     47 OAH         -3.8560     1.3380    -3.1370 o          1 0WO      -0.734000
     48 CAA          2.5890    -2.4230    -1.8370 c3         1 0WO      -0.148400
@<TRIPOS>BOND
     1     1     3 1   
     2     1     4 1   
     3     1    23 1   
     4     2     4 1   
     5     2    16 1   
     6     2    24 1   
     7     4     5 1   
     8     4    25 1   
     9     5    12 1   
    10     5    14 1   
    11     5    26 1   
    12     6     7 ar  
    13     6     8 ar  
    14     6    36 1   
    15     7     9 ar  
    16     7    37 1   
    17     8    10 ar  
    18     8    38 1   
    19     9    18 ar  
    20     9    39 1   
    21    10    18 ar  
    22    10    40 1   
    23    11    13 1   
    24    11    19 2   
    25    12    21 1   
    26    12    41 1   
    27    13    17 1   
    28    14    22 1   
    29    15    21 1   
    30    15    45 1   
    31    15    47 1   
    32    16    20 1   
    33    16    46 2   
    34    17    20 2   
    35    17    48 1   
    36    18    19 1   
    37    19    20 1   
    38    21    22 1   
    39    21    42 1   
    40    22    43 1   
    41    22    44 1   
    42    27    48 1   
    43    28    48 1   
    44    29    48 1   
    45    30    43 1   
    46    31    43 1   
    47    32    43 1   
    48    33    44 1   
    49    34    44 1   
    50    35    44 1   
@<TRIPOS>SUBSTRUCTURE
     1 0WO         1 TEMP              0 ****  ****    0 ROOT
