@<TRIPOS>MOLECULE
0WO
   48    50     1     0     0
SMALL
bcc


@<TRIPOS>ATOM
      1 C           -1.1950    -3.3880    -0.5360 c          1 0WO       0.928600
      2 N            0.4860    -1.6230    -0.2550 ns         1 0WO      -0.490900
      3 OXT         -2.3980    -3.6490    -0.7080 o          1 0WO      -0.825300
      4 CA          -0.8900    -1.9680     0.0120 c3         1 0WO      -0.049300
      5 CB          -1.8310    -0.9140    -0.5720 c5         1 0WO       0.313600
      6 CAI          2.0520     4.4030     0.6240 ca         1 0WO      -0.131000
      7 CAJ          3.3550     4.0560     0.9570 ca         1 0WO      -0.141500
      8 CAK          1.1960     3.4450     0.0970 ca         1 0WO      -0.141500
      9 CAL          3.8000     2.7560     0.7670 ca         1 0WO      -0.087500
     10 CAM          1.6370     2.1440    -0.0940 ca         1 0WO      -0.087500
     11 NAN          4.6430     0.1830    -0.3440 nc         1 0WO      -0.407300
     12 NAP         -1.4620     0.4200    -0.1820 n7         1 0WO      -0.784200
     13 OAQ          4.7500    -1.1670    -0.4870 os         1 0WO      -0.143100
     14 SAR         -3.5760    -1.1770    -0.0040 ss         1 0WO      -0.394200
     15 CAT         -2.9020     1.8430    -1.6440 c          1 0WO       0.941600
     16 CAU          1.2870    -0.9720     0.5910 c          1 0WO       0.696700
     17 CAV          3.5790    -1.7530    -0.2300 cc         1 0WO       0.312000
     18 CAW          2.9430     1.7900     0.2410 ca         1 0WO      -0.141500
     19 CAX          3.4150     0.4190     0.0210 cd         1 0WO       0.439800
     20 CAY          2.6760    -0.7950     0.1050 cd         1 0WO      -0.382200
     21 CBB         -2.6030     1.3180    -0.2260 c5         1 0WO       0.041500
     22 CBC         -3.8140     0.5920     0.4350 c5         1 0WO       0.023100
     23 O           -0.2210    -4.1350    -0.7360 o          1 0WO      -0.825300
     24 HN           0.8620    -1.9050    -1.1460 hn         1 0WO       0.320500
     25 HA          -1.0280    -1.9900     1.0980 h1         1 0WO       0.064700
     26 HB          -1.8380    -0.9860    -1.6580 h2         1 0WO       0.119700
     27 HAA          3.8760    -3.5830    -1.2770 hc         1 0WO       0.070700
     28 HAAA         4.0950    -3.6960     0.4690 hc         1 0WO       0.070700
     29 HAAB         2.4690    -3.5620    -0.2120 hc         1 0WO       0.070700
     30 HAB         -4.4900     0.1260     2.4480 hc         1 0WO       0.023033
     31 HABA        -2.7650     0.4510     2.3460 hc         1 0WO       0.023033
     32 HABB        -3.9200     1.7840     2.2470 hc         1 0WO       0.023033
     33 HAC         -5.9760     0.5310     0.4690 hc         1 0WO       0.023033
     34 HACA        -5.3090     2.1290     0.1440 hc         1 0WO       0.023033
     35 HACB        -5.3100     0.8950    -1.1200 hc         1 0WO       0.023033
     36 HAI          1.7060     5.4180     0.7750 ha         1 0WO       0.115000
     37 HAJ          4.0260     4.7980     1.3700 ha         1 0WO       0.134500
     38 HAK          0.1810     3.7080    -0.1720 ha         1 0WO       0.134500
     39 HAL          4.8120     2.4880     1.0420 ha         1 0WO       0.157000
     40 HAM          0.9530     1.4170    -0.5180 ha         1 0WO       0.157000
     41 HNAP        -1.1020     0.4030     0.7650 hn         1 0WO       0.339800
     42 HBB         -2.3540     2.1870     0.3910 h1         1 0WO       0.036700
     43 CAB         -3.7400     0.7460     1.9540 c3         1 0WO      -0.060100
     44 CAC         -5.1790     1.0640    -0.0520 c3         1 0WO      -0.060100
     45 OAE         -2.6820     1.0890    -2.6110 o          1 0WO      -0.839300
     46 OAF          0.9470    -0.5430     1.6870 o          1 0WO      -0.645100
     47 OAH         -3.3570     3.0040    -1.7000 o          1 0WO      -0.839300
     48 CAA          3.5000    -3.2280    -0.3170 c3         1 0WO      -0.148400
@<TRIPOS>BOND
     1     1     3 1   
     2     1     4 1   
     3     1    23 1   
     4     2     4 1   
     5     2    16 1   
     6     2    24 1   
     7     4     5 1   
     8     4    25 1   
     9     5    12 1   
    10     5    14 1   
    11     5    26 1   
    12     6     7 ar  
    13     6     8 ar  
    14     6    36 1   
    15     7     9 ar  
    16     7    37 1   
    17     8    10 ar  
    18     8    38 1   
    19     9    18 ar  
    20     9    39 1   
    21    10    18 ar  
    22    10    40 1   
    23    11    13 1   
    24    11    19 2   
    25    12    21 1   
    26    12    41 1   
    27    13    17 1   
    28    14    22 1   
    29    15    21 1   
    30    15    45 1   
    31    15    47 1   
    32    16    20 1   
    33    16    46 2   
    34    17    20 2   
    35    17    48 1   
    36    18    19 1   
    37    19    20 1   
    38    21    22 1   
    39    21    42 1   
    40    22    43 1   
    41    22    44 1   
    42    27    48 1   
    43    28    48 1   
    44    29    48 1   
    45    30    43 1   
    46    31    43 1   
    47    32    43 1   
    48    33    44 1   
    49    34    44 1   
    50    35    44 1   
@<TRIPOS>SUBSTRUCTURE
     1 0WO         1 TEMP              0 ****  ****    0 ROOT
