@<TRIPOS>MOLECULE
0WP
   56    59     1     0     0
SMALL
abcg2


@<TRIPOS>ATOM
      1 C1          -2.3240     0.5670    -0.9670 c          1 0WP       0.634700
      2 C2          -1.0140     1.2790    -1.1360 ca         1 0WP      -0.235600
      3 O3          -2.6970    -0.2620    -1.7740 o          1 0WP      -0.563100
      4 C4           0.1790     0.5820    -1.0630 ca         1 0WP       0.204000
      5 C5           1.4130     1.1720    -1.2930 ca         1 0WP      -0.091000
      6 C6           1.4330     2.5270    -1.6110 ca         1 0WP      -0.042000
      7 C7           0.2620     3.2630    -1.6810 ca         1 0WP      -0.155000
      8 C8          -0.9400     2.6270    -1.4450 ca         1 0WP       0.211000
      9 F9          -2.0800     3.3190    -1.5380 f          1 0WP      -0.162000
     10 F10          0.1350    -0.7150    -0.7490 f          1 0WP      -0.160000
     11 N11          2.5750     0.3950    -1.2220 ns         1 0WP      -0.153000
     12 N12         -3.0010     0.9370     0.1370 ns         1 0WP      -0.122000
     13 C13          3.6870     0.7580    -0.5300 c          1 0WP       0.620700
     14 C14          4.8280    -0.2020    -0.6090 ca         1 0WP      -0.153600
     15 O15          3.7590     1.7880     0.1130 o          1 0WP      -0.570100
     16 C16          5.0050    -1.0750    -1.6800 ca         1 0WP      -0.080000
     17 C17          6.1040    -1.9160    -1.7020 ca         1 0WP      -0.117000
     18 C18          7.0290    -1.8950    -0.6670 ca         1 0WP      -0.075000
     19 C19          6.8690    -1.0240     0.4050 ca         1 0WP      -0.086300
     20 C20          5.7660    -0.1780     0.4180 ca         1 0WP      -0.045000
     21 C21          7.8460    -1.0050     1.5790 c3         1 0WP       0.068400
     22 C22          7.1630    -1.5800     2.8320 c3         1 0WP      -0.084600
     23 C23          9.1480    -1.7690     1.3090 c3         1 0WP      -0.084600
     24 C24         -4.2680     0.5090     0.5560 ca         1 0WP      -0.143000
     25 C25         -4.9850    -0.5250     0.0050 ca         1 0WP      -0.009000
     26 C26         -6.2330    -0.7800     0.5930 ca         1 0WP      -0.207000
     27 C27         -6.6910    -0.0030     1.6890 ca         1 0WP       0.241000
     28 N28         -5.9710     1.0100     2.2190 nb         1 0WP      -0.622000
     29 C29         -4.8200     1.2340     1.6590 ca         1 0WP       0.360900
     30 C30         -7.2650    -1.6950     0.3870 cc         1 0WP       0.141000
     31 N31         -8.1920    -1.4130     1.3080 na         1 0WP      -0.057500
     32 N32         -7.8820    -0.3870     2.1230 nc         1 0WP      -0.260400
     33 C33          8.2090     0.3930     1.8470 c1         1 0WP       0.297900
     34 N34          8.5070     1.4820     2.0680 n1         1 0WP      -0.450000
     35 O35         -7.3240    -2.6480    -0.5240 os         1 0WP      -0.298100
     36 C36         -8.4550    -3.5160    -0.5110 c3         1 0WP       0.135900
     37 H1           2.3730     3.0150    -1.8220 ha         1 0WP       0.144000
     38 H2           0.2850     4.3130    -1.9340 ha         1 0WP       0.146000
     39 H3           2.5220    -0.5450    -1.5850 hn         1 0WP       0.169000
     40 H4          -2.5450     1.6040     0.7430 hn         1 0WP       0.159000
     41 H5           4.3180    -1.0900    -2.5160 ha         1 0WP       0.117000
     42 H6           6.2510    -2.5870    -2.5370 ha         1 0WP       0.121000
     43 H7           7.8760    -2.5640    -0.7140 ha         1 0WP       0.120000
     44 H8           5.6200     0.5170     1.2360 ha         1 0WP       0.142000
     45 H9           7.8460    -1.5690     3.6820 hc         1 0WP       0.049033
     46 H10          6.2690    -1.0200     3.1000 hc         1 0WP       0.049033
     47 H11          6.8740    -2.6120     2.6350 hc         1 0WP       0.049033
     48 H12          9.6540    -1.4080     0.4150 hc         1 0WP       0.049033
     49 H13          9.8220    -1.6590     2.1570 hc         1 0WP       0.049033
     50 H14          8.9410    -2.8320     1.1890 hc         1 0WP       0.049033
     51 H15         -4.6200    -1.1120    -0.8230 ha         1 0WP       0.158000
     52 H16         -4.2310     2.0480     2.0750 h4         1 0WP       0.014100
     53 H17         -9.0750    -1.8820     1.4460 hn         1 0WP       0.373000
     54 H18         -8.3050    -4.2230    -1.3200 h1         1 0WP       0.051700
     55 H19         -8.5240    -4.0610     0.4320 h1         1 0WP       0.051700
     56 H20         -9.3810    -2.9650    -0.6890 h1         1 0WP       0.051700
@<TRIPOS>BOND
     1     1     2 1   
     2     1     3 2   
     3     1    12 1   
     4     2     4 ar  
     5     2     8 ar  
     6     4     5 ar  
     7     4    10 1   
     8     5     6 ar  
     9     5    11 1   
    10     6     7 ar  
    11     6    37 1   
    12     7     8 ar  
    13     7    38 1   
    14     8     9 1   
    15    11    13 1   
    16    11    39 1   
    17    12    24 1   
    18    12    40 1   
    19    13    14 1   
    20    13    15 2   
    21    14    16 ar  
    22    14    20 ar  
    23    16    17 ar  
    24    16    41 1   
    25    17    18 ar  
    26    17    42 1   
    27    18    19 ar  
    28    18    43 1   
    29    19    20 ar  
    30    19    21 1   
    31    20    44 1   
    32    21    22 1   
    33    21    23 1   
    34    21    33 1   
    35    22    45 1   
    36    22    46 1   
    37    22    47 1   
    38    23    48 1   
    39    23    49 1   
    40    23    50 1   
    41    24    25 ar  
    42    24    29 ar  
    43    25    26 ar  
    44    25    51 1   
    45    26    27 ar  
    46    26    30 2   
    47    27    28 ar  
    48    27    32 2   
    49    28    29 ar  
    50    29    52 1   
    51    30    31 1   
    52    30    35 1   
    53    31    32 1   
    54    31    53 1   
    55    33    34 3   
    56    35    36 1   
    57    36    54 1   
    58    36    55 1   
    59    36    56 1   
@<TRIPOS>SUBSTRUCTURE
     1 0WP         1 TEMP              0 ****  ****    0 ROOT
