@<TRIPOS>MOLECULE
0WP
   56    59     1     0     0
SMALL
No Charge or Current Charge


@<TRIPOS>ATOM
      1 C1          -2.4270     0.5810    -0.2910 c          1 0WP       0.634700
      2 C2          -1.1150     1.3220    -0.1380 ca         1 0WP      -0.235600
      3 O3          -2.5010    -0.4660    -0.9220 o          1 0WP      -0.563100
      4 C4           0.1070     0.6070    -0.1210 ca         1 0WP       0.204000
      5 C5           1.3510     1.2640     0.0180 ca         1 0WP      -0.091000
      6 C6           1.3720     2.6700     0.1350 ca         1 0WP      -0.042000
      7 C7           0.1690     3.3900     0.1140 ca         1 0WP      -0.155000
      8 C8          -1.0590     2.7300    -0.0200 ca         1 0WP       0.211000
      9 F9          -2.1750     3.4900    -0.0760 f          1 0WP      -0.162000
     10 F10          0.1100    -0.7450    -0.1990 f          1 0WP      -0.160000
     11 N11          2.5320     0.4600     0.0350 ns         1 0WP      -0.153000
     12 N12         -3.5400     1.1820     0.2900 ns         1 0WP      -0.122000
     13 C13          3.8820     0.7630     0.1890 c          1 0WP       0.620700
     14 C14          4.8340    -0.4200     0.1360 ca         1 0WP      -0.153600
     15 O15          4.2980     1.9030     0.3600 o          1 0WP      -0.570100
     16 C16          4.3800    -1.7460    -0.0580 ca         1 0WP      -0.080000
     17 C17          5.2950    -2.8070    -0.1020 ca         1 0WP      -0.117000
     18 C18          6.6700    -2.5730     0.0470 ca         1 0WP      -0.075000
     19 C19          7.1610    -1.2600     0.2450 ca         1 0WP      -0.086300
     20 C20          6.2230    -0.1990     0.2850 ca         1 0WP      -0.045000
     21 C21          8.6740    -0.9510     0.4170 c3         1 0WP       0.068400
     22 C22          8.9130    -0.2710     1.7940 c3         1 0WP      -0.084600
     23 C23          9.5780    -2.2150     0.3370 c3         1 0WP      -0.084600
     24 C24         -4.9160     0.8030     0.3540 ca         1 0WP      -0.143000
     25 C25         -5.4220    -0.4130    -0.1550 ca         1 0WP      -0.009000
     26 C26         -6.7960    -0.6160    -0.0020 ca         1 0WP      -0.207000
     27 C27         -7.6410     0.2920     0.6070 ca         1 0WP       0.241000
     28 N28         -7.1640     1.4510     1.0950 nb         1 0WP      -0.622000
     29 C29         -5.8320     1.6940     0.9690 ca         1 0WP       0.360900
     30 C30         -7.6270    -1.6900    -0.3800 cc         1 0WP       0.141000
     31 N31         -8.9200    -1.4060     0.0010 na         1 0WP      -0.057500
     32 N32         -8.9780    -0.1540     0.6330 nc         1 0WP      -0.260400
     33 C33          9.0850    -0.0290    -0.6660 c1         1 0WP       0.297900
     34 N34          9.4210     0.7140    -1.4990 n1         1 0WP      -0.450000
     35 O35         -7.1700    -2.8100    -1.0220 os         1 0WP      -0.298100
     36 C36         -8.0780    -3.8670    -1.3780 c3         1 0WP       0.135900
     37 H1           2.3000     3.2230     0.2380 ha         1 0WP       0.144000
     38 H2           0.1880     4.4740     0.1950 ha         1 0WP       0.146000
     39 H3           2.3470    -0.5260    -0.0910 hn         1 0WP       0.169000
     40 H4          -3.3320     2.0550     0.7590 hn         1 0WP       0.159000
     41 H5           3.3240    -1.9760    -0.1790 ha         1 0WP       0.117000
     42 H6           4.9350    -3.8220    -0.2520 ha         1 0WP       0.121000
     43 H7           7.3330    -3.4310     0.0060 ha         1 0WP       0.120000
     44 H8           6.5800     0.8190     0.4290 ha         1 0WP       0.142000
     45 H9           9.9790    -0.0660     1.9530 hc         1 0WP       0.049033
     46 H10          8.3770     0.6810     1.8790 hc         1 0WP       0.049033
     47 H11          8.5710    -0.9220     2.6070 hc         1 0WP       0.049033
     48 H12          9.4710    -2.7230    -0.6300 hc         1 0WP       0.049033
     49 H13         10.6370    -1.9490     0.4540 hc         1 0WP       0.049033
     50 H14          9.3300    -2.9270     1.1340 hc         1 0WP       0.049033
     51 H15         -4.8050    -1.1670    -0.6390 ha         1 0WP       0.158000
     52 H16         -5.4840     2.6420     1.3770 h4         1 0WP       0.014100
     53 H17         -9.7450    -1.9800    -0.1320 hn         1 0WP       0.373000
     54 H18         -7.5380    -4.6780    -1.8810 h1         1 0WP       0.051700
     55 H19         -8.5620    -4.2830    -0.4850 h1         1 0WP       0.051700
     56 H20         -8.8550    -3.5000    -2.0610 h1         1 0WP       0.051700
@<TRIPOS>BOND
     1     1     2 1   
     2     1     3 2   
     3     1    12 1   
     4     2     4 ar  
     5     2     8 ar  
     6     4     5 ar  
     7     4    10 1   
     8     5     6 ar  
     9     5    11 1   
    10     6     7 ar  
    11     6    37 1   
    12     7     8 ar  
    13     7    38 1   
    14     8     9 1   
    15    11    13 1   
    16    11    39 1   
    17    12    24 1   
    18    12    40 1   
    19    13    14 1   
    20    13    15 2   
    21    14    16 ar  
    22    14    20 ar  
    23    16    17 ar  
    24    16    41 1   
    25    17    18 ar  
    26    17    42 1   
    27    18    19 ar  
    28    18    43 1   
    29    19    20 ar  
    30    19    21 1   
    31    20    44 1   
    32    21    22 1   
    33    21    23 1   
    34    21    33 1   
    35    22    45 1   
    36    22    46 1   
    37    22    47 1   
    38    23    48 1   
    39    23    49 1   
    40    23    50 1   
    41    24    25 ar  
    42    24    29 ar  
    43    25    26 ar  
    44    25    51 1   
    45    26    27 ar  
    46    26    30 2   
    47    27    28 ar  
    48    27    32 2   
    49    28    29 ar  
    50    29    52 1   
    51    30    31 1   
    52    30    35 1   
    53    31    32 1   
    54    31    53 1   
    55    33    34 3   
    56    35    36 1   
    57    36    54 1   
    58    36    55 1   
    59    36    56 1   
@<TRIPOS>SUBSTRUCTURE
     1 0WP         1 TEMP              0 ****  ****    0 ROOT
