@<TRIPOS>MOLECULE
0WQ
   22    22     1     0     0
SMALL
bcc


@<TRIPOS>ATOM
      1 C11        -24.6130    -2.6660     3.7910 ca         1 0WQ      -0.128000
      2 C10        -25.0410    -1.6900     2.9000 ca         1 0WQ      -0.102000
      3 C12        -23.5020    -2.4550     4.5920 ca         1 0WQ      -0.111000
      4 C01        -22.0400    -0.8340     6.8660 c3         1 0WQ      -0.086100
      5 C02        -21.5990    -1.0060     5.4130 c3         1 0WQ      -0.083700
      6 C03        -20.5940    -2.1200     5.3000 c2         1 0WQ       0.373200
      7 C06        -22.7900    -1.2610     4.5140 ca         1 0WQ      -0.067300
      8 C07        -23.2100    -0.2820     3.6200 ca         1 0WQ      -0.089000
      9 C08        -24.3280    -0.5040     2.8310 ca         1 0WQ      -0.015900
     10 N04        -19.8000    -2.3430     4.3380 n2         1 0WQ      -0.427200
     11 O05        -19.9200    -1.4420     3.3200 oh         1 0WQ      -0.377500
     12 BR9        -24.8850     0.8470     1.6300 br         1 0WQ      -0.103100
     13 H1         -25.1590    -3.5980     3.8570 ha         1 0WQ       0.135000
     14 H2         -25.9120    -1.8600     2.2800 ha         1 0WQ       0.147000
     15 H3         -23.1920    -3.2290     5.2830 ha         1 0WQ       0.133000
     16 H5         -22.7500    -0.0130     6.9580 hc         1 0WQ       0.040367
     17 H6         -22.5190    -1.7380     7.2450 hc         1 0WQ       0.040367
     18 H7         -21.1250    -0.0770     5.0840 hc         1 0WQ       0.077700
     19 H8         -20.5120    -2.8340     6.1140 h4         1 0WQ       0.026800
     20 H9         -22.6610     0.6500     3.5530 ha         1 0WQ       0.148000
     21 H10        -19.2540    -1.7170     2.6800 ho         1 0WQ       0.428000
     22 H4         -21.1850    -0.6130     7.5070 hc         1 0WQ       0.040367
@<TRIPOS>BOND
     1     1     2 ar  
     2     1     3 ar  
     3     1    13 1   
     4     2     9 ar  
     5     2    14 1   
     6     3     7 ar  
     7     3    15 1   
     8     4     5 1   
     9     4    16 1   
    10     4    17 1   
    11     4    22 1   
    12     5     6 1   
    13     5     7 1   
    14     5    18 1   
    15     6    10 2   
    16     6    19 1   
    17     7     8 ar  
    18     8     9 ar  
    19     8    20 1   
    20     9    12 1   
    21    10    11 1   
    22    11    21 1   
@<TRIPOS>SUBSTRUCTURE
     1 0WQ         1 TEMP              0 ****  ****    0 ROOT
