@<TRIPOS>MOLECULE
0WQ
   22    22     1     0     0
SMALL
No Charge or Current Charge


@<TRIPOS>ATOM
      1 C11        -25.0650    -2.5350     4.1510 ca         1 0WQ      -0.110000
      2 C10        -25.4280    -1.6850     3.0940 ca         1 0WQ      -0.084000
      3 C12        -23.8370    -2.3540     4.8120 ca         1 0WQ      -0.093000
      4 C01        -21.7860    -0.9630     6.6610 c3         1 0WQ      -0.086100
      5 C02        -21.6170    -1.1160     5.1300 c3         1 0WQ      -0.083700
      6 C03        -20.6420    -2.2480     4.7910 c2         1 0WQ       0.373200
      7 C06        -22.9600    -1.3180     4.4230 ca         1 0WQ      -0.067300
      8 C07        -23.3310    -0.4730     3.3560 ca         1 0WQ      -0.071000
      9 C08        -24.5590    -0.6560     2.6980 ca         1 0WQ      -0.015900
     10 N04        -19.4000    -2.1390     4.4160 n2         1 0WQ      -0.328700
     11 O05        -18.8810    -0.8290     4.3490 oh         1 0WQ      -0.515000
     12 Br9        -25.0480     0.5010     1.2550 br         1 0WQ      -0.103100
     13 H1         -25.7340    -3.3360     4.4580 ha         1 0WQ       0.117000
     14 H2         -26.3780    -1.8260     2.5820 ha         1 0WQ       0.129000
     15 H3         -23.5700    -3.0270     5.6240 ha         1 0WQ       0.115000
     16 H5         -22.5010    -0.1650     6.8920 hc         1 0WQ       0.040367
     17 H6         -22.1450    -1.8920     7.1190 hc         1 0WQ       0.040367
     18 H7         -21.2080    -0.1610     4.7820 hc         1 0WQ       0.077700
     19 H8         -21.0620    -3.2470     4.8670 h4         1 0WQ       0.026800
     20 H9         -22.6690     0.3280     3.0350 ha         1 0WQ       0.130000
     21 H10        -17.9440    -0.9370     4.0530 ho         1 0WQ       0.467000
     22 H4         -20.8270    -0.7060     7.1270 hc         1 0WQ       0.040367
@<TRIPOS>BOND
     1     1     2 ar  
     2     1     3 ar  
     3     1    13 1   
     4     2     9 ar  
     5     2    14 1   
     6     3     7 ar  
     7     3    15 1   
     8     4     5 1   
     9     4    16 1   
    10     4    17 1   
    11     4    22 1   
    12     5     6 1   
    13     5     7 1   
    14     5    18 1   
    15     6    10 2   
    16     6    19 1   
    17     7     8 ar  
    18     8     9 ar  
    19     8    20 1   
    20     9    12 1   
    21    10    11 1   
    22    11    21 1   
@<TRIPOS>SUBSTRUCTURE
     1 0WQ         1 TEMP              0 ****  ****    0 ROOT
