@<TRIPOS>MOLECULE
0WR
   78    83     1     0     0
SMALL
abcg2


@<TRIPOS>ATOM
      1 C1          -7.4620     1.9140    -1.9440 c3         1 0WR      -0.101600
      2 N1          -3.8750    -0.3940     1.1780 n3         1 0WR      -0.698600
      3 O1           1.3590    -5.0140    -2.0990 os         1 0WR      -0.445000
      4 C2          -7.4310     0.5840    -1.1990 c3         1 0WR       0.192000
      5 N2          -0.9070    -1.3420     1.0400 nc         1 0WR      -0.532100
      6 O2          -8.6870     0.5050    -0.5290 oh         1 0WR      -0.664000
      7 C3          -7.3120    -0.5620    -2.2030 c3         1 0WR      -0.101600
      8 N3          -0.6560     0.7550     1.7350 na         1 0WR      -0.271300
      9 C4          -6.2940     0.5780    -0.1520 c6         1 0WR      -0.088700
     10 N4           1.5900     1.1770     0.9850 nb         1 0WR      -0.229000
     11 C5          -6.2830    -0.6640     0.7400 c6         1 0WR      -0.071900
     12 N5           2.5130    -0.6750    -0.1770 nb         1 0WR      -0.321000
     13 C6          -5.1830    -0.5750     1.7850 c6         1 0WR       0.162800
     14 N6           1.5080    -2.7180    -0.4660 nh         1 0WR      -0.757300
     15 C7          -3.8430     0.7990     0.3500 c6         1 0WR       0.162800
     16 C8          -4.8960     0.7480    -0.7440 c6         1 0WR      -0.071900
     17 C10         -1.4740    -0.3400     1.6540 cd         1 0WR       0.396800
     18 C11          0.3420    -0.8980     0.6920 ca         1 0WR      -0.095600
     19 C12          0.5090     0.4140     1.1250 ca         1 0WR       0.132500
     20 C14          2.5260     0.5550     0.3050 ca         1 0WR       0.300500
     21 C15          1.4480    -1.4680     0.0140 ca         1 0WR       0.479900
     22 C16          0.5050    -3.7400    -0.2190 c6         1 0WR       0.176300
     23 C17          0.1960    -4.4790    -1.5100 c6         1 0WR       0.137100
     24 C18          2.2940    -3.9950    -2.3770 c6         1 0WR       0.137100
     25 C19          2.6960    -3.2390    -1.1230 c6         1 0WR       0.176300
     26 N7           3.7200     1.2650     0.0780 na         1 0WR      -0.220100
     27 C20          4.9840     0.7730     0.4050 ca         1 0WR      -0.067200
     28 C21          5.4570    -0.4990     0.6770 ca         1 0WR      -0.087000
     29 C22          6.8030    -0.6150     1.0080 ca         1 0WR      -0.121000
     30 C23          7.6380     0.5020     1.0550 ca         1 0WR      -0.120000
     31 C24          7.1520     1.7740     0.7820 ca         1 0WR      -0.077000
     32 C25          5.8070     1.9080     0.4550 ca         1 0WR       0.110400
     33 N8           5.0950     3.0380     0.1330 nc         1 0WR      -0.651100
     34 C26          3.8690     2.6350    -0.0830 cd         1 0WR       0.696700
     35 N9           2.8600     3.4480    -0.4460 nh         1 0WR      -0.738600
     36 C27          3.0900     4.8750    -0.3730 c3         1 0WR       0.221600
     37 C28          1.8030     3.0310    -1.3450 c3         1 0WR       0.221600
     38 H1          -6.5810     2.0370    -2.5740 hc         1 0WR       0.042367
     39 H2          -8.3370     1.9670    -2.5950 hc         1 0WR       0.042367
     40 H3          -7.4990     2.7590    -1.2530 hc         1 0WR       0.042367
     41 H5          -8.7750    -0.3710    -0.1400 ho         1 0WR       0.439000
     42 H6          -6.3910    -0.4970    -2.7830 hc         1 0WR       0.042367
     43 H7          -7.3220    -1.5390    -1.7150 hc         1 0WR       0.042367
     44 H8          -8.1460    -0.5320    -2.9060 hc         1 0WR       0.042367
     45 H9          -6.4750     1.4440     0.5000 hc         1 0WR       0.054700
     46 H10         -7.2310    -0.7840     1.2690 hc         1 0WR       0.049700
     47 H11         -6.1310    -1.5640     0.1370 hc         1 0WR       0.049700
     48 H12         -5.1660    -1.4940     2.3770 h1         1 0WR       0.032200
     49 H13         -5.4120     0.2470     2.4860 h1         1 0WR       0.032200
     50 H14         -3.9940     1.7110     0.9580 h1         1 0WR       0.032200
     51 H15         -2.8550     0.8880    -0.1110 h1         1 0WR       0.032200
     52 H16         -4.6680    -0.0810    -1.4210 hc         1 0WR       0.049700
     53 H17         -4.8260     1.6660    -1.3310 hc         1 0WR       0.049700
     54 H20         -1.7950     2.5130     1.8310 h1         1 0WR       0.061033
     55 H21         -1.1680     1.9410     3.3890 h1         1 0WR       0.061033
     56 H22         -0.0770     2.6800     2.2120 h1         1 0WR       0.061033
     57 H23          0.8900    -4.4450     0.5270 h1         1 0WR       0.077700
     58 H24         -0.4060    -3.3010     0.1760 h1         1 0WR       0.077700
     59 H25         -0.3100    -3.7960    -2.2060 h1         1 0WR       0.056950
     60 H26         -0.4790    -5.3090    -1.3000 h1         1 0WR       0.056950
     61 H27          3.1740    -4.4660    -2.8170 h1         1 0WR       0.056950
     62 H28          1.8840    -3.2870    -3.1100 h1         1 0WR       0.056950
     63 H29          3.3630    -2.4230    -1.3850 h1         1 0WR       0.077700
     64 H30          3.2300    -3.9030    -0.4340 h1         1 0WR       0.077700
     65 H31          4.8150    -1.3670     0.6310 ha         1 0WR       0.128000
     66 H32          7.2080    -1.5940     1.2270 ha         1 0WR       0.109000
     67 H33          8.6820     0.3740     1.3090 ha         1 0WR       0.110000
     68 H34          7.7990     2.6410     0.8230 ha         1 0WR       0.125000
     69 H35          3.6370     5.2550    -1.2400 h1         1 0WR       0.040200
     70 H36          2.1270     5.3810    -0.3280 h1         1 0WR       0.040200
     71 H37          3.6470     5.1280     0.5250 h1         1 0WR       0.040200
     72 H38          1.9780     2.0330    -1.7390 h1         1 0WR       0.040200
     73 H39          0.8280     3.0460    -0.8580 h1         1 0WR       0.040200
     74 H40          1.7720     3.7080    -2.2010 h1         1 0WR       0.040200
     75 C9          -2.8580    -0.3660     2.2130 c3         1 0WR       0.156500
     76 C13         -0.9490     2.0430     2.3290 c3         1 0WR       0.059900
     77 H18         -2.9970     0.4800     2.9040 h1         1 0WR       0.050700
     78 H19         -2.9580    -1.2720     2.8160 h1         1 0WR       0.050700
@<TRIPOS>BOND
     1     1     4 1   
     2     1    38 1   
     3     1    39 1   
     4     1    40 1   
     5     2    13 1   
     6     2    15 1   
     7     2    75 1   
     8     3    23 1   
     9     3    24 1   
    10     4     6 1   
    11     4     7 1   
    12     4     9 1   
    13     5    17 2   
    14     5    18 1   
    15     6    41 1   
    16     7    42 1   
    17     7    43 1   
    18     7    44 1   
    19     8    17 1   
    20     8    19 1   
    21     8    76 1   
    22     9    11 1   
    23     9    16 1   
    24     9    45 1   
    25    10    19 ar  
    26    10    20 ar  
    27    11    13 1   
    28    11    46 1   
    29    11    47 1   
    30    12    20 ar  
    31    12    21 ar  
    32    13    48 1   
    33    13    49 1   
    34    14    21 1   
    35    14    22 1   
    36    14    25 1   
    37    15    16 1   
    38    15    50 1   
    39    15    51 1   
    40    16    52 1   
    41    16    53 1   
    42    17    75 1   
    43    18    19 ar  
    44    18    21 ar  
    45    20    26 1   
    46    22    23 1   
    47    22    57 1   
    48    22    58 1   
    49    23    59 1   
    50    23    60 1   
    51    24    25 1   
    52    24    61 1   
    53    24    62 1   
    54    25    63 1   
    55    25    64 1   
    56    26    27 1   
    57    26    34 1   
    58    27    28 ar  
    59    27    32 ar  
    60    28    29 ar  
    61    28    65 1   
    62    29    30 ar  
    63    29    66 1   
    64    30    31 ar  
    65    30    67 1   
    66    31    32 ar  
    67    31    68 1   
    68    32    33 1   
    69    33    34 2   
    70    34    35 1   
    71    35    36 1   
    72    35    37 1   
    73    36    69 1   
    74    36    70 1   
    75    36    71 1   
    76    37    72 1   
    77    37    73 1   
    78    37    74 1   
    79    54    76 1   
    80    55    76 1   
    81    56    76 1   
    82    75    77 1   
    83    75    78 1   
@<TRIPOS>SUBSTRUCTURE
     1 0WR         1 TEMP              0 ****  ****    0 ROOT
