@<TRIPOS>MOLECULE
0WR
   78    83     1     0     0
SMALL
No Charge or Current Charge


@<TRIPOS>ATOM
      1 C1          -7.5910     2.7470    -0.7570 c3         1 0WR      -0.101600
      2 N1          -3.7860    -0.5570     1.2460 n3         1 0WR      -0.698600
      3 O1           1.4900    -5.3960    -2.6220 os         1 0WR      -0.445000
      4 C2          -7.5370     1.2310    -0.4380 c3         1 0WR       0.192000
      5 N2          -0.7030    -1.6940     0.6330 nc         1 0WR      -0.532100
      6 O2          -8.7470     0.9400     0.2660 oh         1 0WR      -0.664000
      7 C3          -7.5900     0.4320    -1.7650 c3         1 0WR      -0.101600
      8 N3          -0.3900     0.3280     1.6770 na         1 0WR      -0.271300
      9 C4          -6.3030     0.8640     0.4800 c6         1 0WR      -0.088700
     10 N4           1.8620     0.7820     0.7950 nb         1 0WR      -0.229000
     11 C5          -6.2780    -0.6230     0.9530 c6         1 0WR      -0.071900
     12 N5           2.7170    -0.9010    -0.6510 nb         1 0WR      -0.321000
     13 C6          -5.0800    -0.8980     1.8930 c6         1 0WR       0.162800
     14 N6           1.5510    -2.8430    -1.2440 nh         1 0WR      -0.757300
     15 C7          -3.7560     0.8690     0.8190 c6         1 0WR       0.162800
     16 C8          -4.9170     1.2010    -0.1500 c6         1 0WR      -0.071900
     17 C10         -1.2360    -0.7720     1.4550 cd         1 0WR       0.396800
     18 C11          0.5380    -1.1340     0.3120 ca         1 0WR      -0.095600
     19 C12          0.7330     0.0700     0.9390 ca         1 0WR       0.132500
     20 C14          2.8360     0.2860    -0.0100 ca         1 0WR       0.300500
     21 C15          1.5860    -1.6210    -0.5150 ca         1 0WR       0.479900
     22 C16          0.2560    -3.5440    -1.5400 c6         1 0WR       0.176300
     23 C17          0.3600    -4.5050    -2.7600 c6         1 0WR       0.137100
     24 C18          2.7450    -4.6830    -2.5380 c6         1 0WR       0.137100
     25 C19          2.7630    -3.7350    -1.3030 c6         1 0WR       0.176300
     26 N7           4.0210     0.9920    -0.1720 na         1 0WR      -0.220100
     27 C20          4.8890     1.2050     0.8660 ca         1 0WR      -0.067200
     28 C21          5.4250     0.2710     1.7640 ca         1 0WR      -0.087000
     29 C22          6.3150     0.7430     2.7500 ca         1 0WR      -0.121000
     30 C23          6.6420     2.1180     2.8130 ca         1 0WR      -0.120000
     31 C24          6.0810     3.0270     1.8910 ca         1 0WR      -0.077000
     32 C25          5.1960     2.5390     0.9180 ca         1 0WR       0.110400
     33 N8           4.5380     3.2610    -0.0630 nc         1 0WR      -0.651100
     34 C26          3.8220     2.2980    -0.6640 cd         1 0WR       0.696700
     35 N9           3.0200     2.5990    -1.7730 nh         1 0WR      -0.738600
     36 C27          2.5990     3.9880    -2.0520 c3         1 0WR       0.221600
     37 C28          2.6850     1.5900    -2.8020 c3         1 0WR       0.221600
     38 H1          -6.7700     3.0450    -1.4200 hc         1 0WR       0.042367
     39 H2          -8.5300     3.0070    -1.2620 hc         1 0WR       0.042367
     40 H3          -7.5250     3.3440     0.1600 hc         1 0WR       0.042367
     41 H5          -8.7890    -0.0340     0.3640 ho         1 0WR       0.439000
     42 H6          -6.7110     0.6370    -2.3870 hc         1 0WR       0.042367
     43 H7          -7.6370    -0.6490    -1.5880 hc         1 0WR       0.042367
     44 H8          -8.4770     0.7080    -2.3490 hc         1 0WR       0.042367
     45 H9          -6.4120     1.4880     1.3790 hc         1 0WR       0.054700
     46 H10         -7.2050    -0.8790     1.4820 hc         1 0WR       0.049700
     47 H11         -6.2080    -1.3000     0.0920 hc         1 0WR       0.049700
     48 H12         -5.0940    -1.9610     2.1760 h1         1 0WR       0.032200
     49 H13         -5.2080    -0.3160     2.8190 h1         1 0WR       0.032200
     50 H14         -3.8220     1.5300     1.6960 h1         1 0WR       0.032200
     51 H15         -2.8090     1.0990     0.3100 h1         1 0WR       0.032200
     52 H16         -4.7710     0.6380    -1.0810 hc         1 0WR       0.049700
     53 H17         -4.8550     2.2650    -0.4120 hc         1 0WR       0.049700
     54 H20         -1.6360     1.6970     2.7140 h1         1 0WR       0.061033
     55 H21         -0.0700     1.3420     3.5010 h1         1 0WR       0.061033
     56 H22         -0.1310     2.3920     2.0550 h1         1 0WR       0.061033
     57 H23         -0.0710    -4.1220    -0.6630 h1         1 0WR       0.077700
     58 H24         -0.5340    -2.8120    -1.7630 h1         1 0WR       0.077700
     59 H25          0.4720    -3.9200    -3.6850 h1         1 0WR       0.056950
     60 H26         -0.5610    -5.0990    -2.8450 h1         1 0WR       0.056950
     61 H27          3.5670    -5.4090    -2.4610 h1         1 0WR       0.056950
     62 H28          2.8920    -4.1000    -3.4580 h1         1 0WR       0.056950
     63 H29          3.6920    -3.1480    -1.3500 h1         1 0WR       0.077700
     64 H30          2.8200    -4.3480    -0.3920 h1         1 0WR       0.077700
     65 H31          5.1660    -0.7830     1.7000 ha         1 0WR       0.128000
     66 H32          6.7510     0.0480     3.4640 ha         1 0WR       0.109000
     67 H33          7.3300     2.4760     3.5760 ha         1 0WR       0.110000
     68 H34          6.3260     4.0860     1.9330 ha         1 0WR       0.125000
     69 H35          3.4300     4.5580    -2.4870 h1         1 0WR       0.040200
     70 H36          1.7570     4.0090    -2.7560 h1         1 0WR       0.040200
     71 H37          2.2780     4.4860    -1.1280 h1         1 0WR       0.040200
     72 H38          3.4710     0.8270    -2.8700 h1         1 0WR       0.040200
     73 H39          1.7360     1.0960    -2.5580 h1         1 0WR       0.040200
     74 H40          2.5870     2.0580    -3.7900 h1         1 0WR       0.040200
     75 C9          -2.6130    -0.9460     2.0910 c3         1 0WR       0.156500
     76 C13         -0.5690     1.5100     2.5390 c3         1 0WR       0.059900
     77 H18         -2.6300    -0.3810     3.0320 h1         1 0WR       0.050700
     78 H19         -2.7050    -2.0040     2.3690 h1         1 0WR       0.050700
@<TRIPOS>BOND
     1     1     4 1   
     2     1    38 1   
     3     1    39 1   
     4     1    40 1   
     5     2    13 1   
     6     2    15 1   
     7     2    75 1   
     8     3    23 1   
     9     3    24 1   
    10     4     6 1   
    11     4     7 1   
    12     4     9 1   
    13     5    17 2   
    14     5    18 1   
    15     6    41 1   
    16     7    42 1   
    17     7    43 1   
    18     7    44 1   
    19     8    17 1   
    20     8    19 1   
    21     8    76 1   
    22     9    11 1   
    23     9    16 1   
    24     9    45 1   
    25    10    19 ar  
    26    10    20 ar  
    27    11    13 1   
    28    11    46 1   
    29    11    47 1   
    30    12    20 ar  
    31    12    21 ar  
    32    13    48 1   
    33    13    49 1   
    34    14    21 1   
    35    14    22 1   
    36    14    25 1   
    37    15    16 1   
    38    15    50 1   
    39    15    51 1   
    40    16    52 1   
    41    16    53 1   
    42    17    75 1   
    43    18    19 ar  
    44    18    21 ar  
    45    20    26 1   
    46    22    23 1   
    47    22    57 1   
    48    22    58 1   
    49    23    59 1   
    50    23    60 1   
    51    24    25 1   
    52    24    61 1   
    53    24    62 1   
    54    25    63 1   
    55    25    64 1   
    56    26    27 1   
    57    26    34 1   
    58    27    28 ar  
    59    27    32 ar  
    60    28    29 ar  
    61    28    65 1   
    62    29    30 ar  
    63    29    66 1   
    64    30    31 ar  
    65    30    67 1   
    66    31    32 ar  
    67    31    68 1   
    68    32    33 1   
    69    33    34 2   
    70    34    35 1   
    71    35    36 1   
    72    35    37 1   
    73    36    69 1   
    74    36    70 1   
    75    36    71 1   
    76    37    72 1   
    77    37    73 1   
    78    37    74 1   
    79    54    76 1   
    80    55    76 1   
    81    56    76 1   
    82    75    77 1   
    83    75    78 1   
@<TRIPOS>SUBSTRUCTURE
     1 0WR         1 TEMP              0 ****  ****    0 ROOT
