@<TRIPOS>MOLECULE
0WS
   20    21     1     0     0
SMALL
No Charge or Current Charge


@<TRIPOS>ATOM
      1 C5          -2.0110     1.5140     0.0230 ca         1 0WS      -0.128000
      2 C2          -0.5260    -0.3820     0.0100 ca         1 0WS      -0.099000
      3 C3           0.5730     0.5100     0.0150 ca         1 0WS       0.261000
      4 C4          -0.8770     2.3400     0.0280 ca         1 0WS       0.288900
      5 C6           1.9640    -0.0150     0.0100 cc         1 0WS       0.223000
      6 O           -4.1690    -0.3390     0.0130 o          1 0WS      -0.713500
      7 C1          -1.8520     0.1110     0.0140 ca         1 0WS      -0.117600
      8 O1          -2.8440    -2.0320     0.0010 o          1 0WS      -0.713500
      9 C           -3.0470    -0.8260     0.0090 c          1 0WS       0.714600
     10 N            0.3860     1.8610     0.0240 nb         1 0WS      -0.702000
     11 C8           3.1190     0.7930     0.0150 cc         1 0WS      -0.190000
     12 C7           4.2040    -0.0280     0.0080 cd         1 0WS      -0.215000
     13 N2           3.6620    -1.3170     0.0000 na         1 0WS      -0.012200
     14 N1           2.2670    -1.3070     0.0020 nd         1 0WS      -0.514800
     15 H4          -2.9980     1.9680     0.0270 ha         1 0WS       0.133000
     16 H2          -0.3470    -1.4530     0.0030 ha         1 0WS       0.150000
     17 H3          -0.9810     3.4240     0.0350 h4         1 0WS      -0.011900
     18 H6           3.1220     1.8780     0.0220 ha         1 0WS       0.151000
     19 H5           5.2690     0.1800     0.0090 h4         1 0WS       0.136000
     20 H            4.1860    -2.1920    -0.0060 hn         1 0WS       0.359000
@<TRIPOS>BOND
     1     1     4 ar  
     2     1     7 ar  
     3     1    15 1   
     4     2     3 ar  
     5     2     7 ar  
     6     2    16 1   
     7     3     5 1   
     8     3    10 ar  
     9     4    10 ar  
    10     4    17 1   
    11     5    11 1   
    12     5    14 2   
    13     6     9 1   
    14     7     9 1   
    15     8     9 1   
    16    11    12 2   
    17    11    18 1   
    18    12    13 1   
    19    12    19 1   
    20    13    14 1   
    21    13    20 1   
@<TRIPOS>SUBSTRUCTURE
     1 0WS         1 TEMP              0 ****  ****    0 ROOT
