@<TRIPOS>MOLECULE
0WS
   20    21     1     0     0
SMALL
bcc


@<TRIPOS>ATOM
      1 C5          -1.9860     1.4880     0.0220 ca         1 0WS      -0.211300
      2 C2          -0.5080    -0.3730     0.0140 ca         1 0WS      -0.182300
      3 C3           0.5580     0.5240     0.0180 ca         1 0WS       0.326300
      4 C4          -0.8650     2.3030     0.0290 ca         1 0WS       0.354200
      5 C6           1.9490     0.0610     0.0130 cc         1 0WS       0.288300
      6 O           -4.1280    -0.3160    -0.0080 o          1 0WS      -0.818800
      7 C1          -1.8090     0.1080     0.0150 ca         1 0WS      -0.117600
      8 O1          -2.7370    -2.0610     0.0180 o          1 0WS      -0.818800
      9 C           -3.0030    -0.8460     0.0080 c          1 0WS       0.925200
     10 N            0.3790     1.8440     0.0270 nb         1 0WS      -0.702000
     11 C8           3.1180     0.8490     0.0170 cc         1 0WS      -0.273300
     12 C7           4.1450    -0.0630     0.0070 cd         1 0WS      -0.182300
     13 N2           3.5700    -1.2780    -0.0020 na         1 0WS      -0.012600
     14 N1           2.2490    -1.2300     0.0000 nd         1 0WS      -0.514800
     15 H4          -2.9750     1.9220     0.0220 ha         1 0WS       0.151000
     16 H2          -0.3250    -1.4390     0.0090 ha         1 0WS       0.168000
     17 H3          -0.9780     3.3820     0.0360 h4         1 0WS      -0.011900
     18 H6           3.1930     1.9230     0.0260 ha         1 0WS       0.169000
     19 H5           5.2150     0.0610     0.0050 h4         1 0WS       0.154000
     20 H            4.0380    -2.1710    -0.0140 hn         1 0WS       0.308700
@<TRIPOS>BOND
     1     1     4 ar  
     2     1     7 ar  
     3     1    15 1   
     4     2     3 ar  
     5     2     7 ar  
     6     2    16 1   
     7     3     5 1   
     8     3    10 ar  
     9     4    10 ar  
    10     4    17 1   
    11     5    11 1   
    12     5    14 2   
    13     6     9 1   
    14     7     9 1   
    15     8     9 1   
    16    11    12 2   
    17    11    18 1   
    18    12    13 1   
    19    12    19 1   
    20    13    14 1   
    21    13    20 1   
@<TRIPOS>SUBSTRUCTURE
     1 0WS         1 TEMP              0 ****  ****    0 ROOT
