@<TRIPOS>MOLECULE
0WU
   25    25     1     0     0
SMALL
No Charge or Current Charge


@<TRIPOS>ATOM
      1 C4          -0.4040     1.4610    -0.3630 c6         1 0WU      -0.050200
      2 C5          -0.9700     0.0100    -0.4390 c6         1 0WU      -0.015500
      3 C6          -0.1300    -0.9640     0.4300 c6         1 0WU      -0.173400
      4 C8          -2.4730    -0.0400    -0.1290 c2         1 0WU      -0.114400
      5 C9          -3.3760    -0.1580    -1.1160 c2         1 0WU      -0.315000
      6 C10         -2.8820     0.0570     1.3340 c3         1 0WU      -0.056900
      7 C3           1.1210     1.5330    -0.2610 c2         1 0WU      -0.161200
      8 C1           1.3140    -0.9260    -0.0660 c          1 0WU       0.571300
      9 O1           1.9440    -1.9470    -0.3100 o          1 0WU      -0.525100
     10 C2           1.9160     0.4470    -0.0960 ce         1 0WU      -0.201400
     11 H1          -0.7450     2.0340    -1.2360 hc         1 0WU       0.058200
     12 H2          -0.8210     1.9760     0.5120 hc         1 0WU       0.058200
     13 H3          -0.8380    -0.3170    -1.4810 hc         1 0WU       0.057700
     14 H4          -0.1270    -0.5610     1.4500 hc         1 0WU       0.072200
     15 H5          -0.5140    -1.9920     0.4300 hc         1 0WU       0.072200
     16 H6           3.7500    -0.1780     0.8990 hc         1 0WU       0.046033
     17 H7           3.9870     0.4350    -0.7450 hc         1 0WU       0.046033
     18 H8           3.6640     1.5570     0.5840 hc         1 0WU       0.046033
     19 H9          -4.4460    -0.1920    -0.9120 ha         1 0WU       0.165500
     20 H10         -3.0820    -0.2230    -2.1640 ha         1 0WU       0.165500
     21 H11         -2.4860     0.9630     1.8060 hc         1 0WU       0.041033
     22 H12         -3.9730     0.0860     1.4440 hc         1 0WU       0.041033
     23 H13         -2.5250    -0.8060     1.9090 hc         1 0WU       0.041033
     24 H14          1.5470     2.5390    -0.2540 ha         1 0WU       0.176000
     25 C7           3.4080     0.5720     0.1750 c3         1 0WU      -0.040900
@<TRIPOS>BOND
     1     1     2 1   
     2     1     7 1   
     3     1    11 1   
     4     1    12 1   
     5     2     3 1   
     6     2     4 1   
     7     2    13 1   
     8     3     8 1   
     9     3    14 1   
    10     3    15 1   
    11     4     5 2   
    12     4     6 1   
    13     5    19 1   
    14     5    20 1   
    15     6    21 1   
    16     6    22 1   
    17     6    23 1   
    18     7    10 2   
    19     7    24 1   
    20     8     9 2   
    21     8    10 1   
    22    10    25 1   
    23    16    25 1   
    24    17    25 1   
    25    18    25 1   
@<TRIPOS>SUBSTRUCTURE
     1 0WU         1 TEMP              0 ****  ****    0 ROOT
