@<TRIPOS>MOLECULE
0WU
   25    25     1     0     0
SMALL
abcg2


@<TRIPOS>ATOM
      1 C4          -0.4210     1.4650    -0.0390 c6         1 0WU      -0.050200
      2 C5          -0.9340     0.0660    -0.3730 c6         1 0WU      -0.015500
      3 C6          -0.1470    -0.9670     0.4340 c6         1 0WU      -0.173400
      4 C8          -2.4220    -0.0640    -0.1690 c2         1 0WU      -0.114400
      5 C9          -3.2240    -0.3160    -1.2010 c2         1 0WU      -0.315000
      6 C10         -2.9690     0.1020     1.2280 c3         1 0WU      -0.056900
      7 C3           1.0680     1.5430    -0.1010 c2         1 0WU      -0.161200
      8 C1           1.3410    -0.8570     0.2070 c          1 0WU       0.571300
      9 O1           2.0660    -1.8330     0.2590 o          1 0WU      -0.525100
     10 C2           1.8960     0.4920    -0.0230 ce         1 0WU      -0.201400
     11 H1          -0.8500     2.1970    -0.7270 hc         1 0WU       0.058200
     12 H2          -0.7450     1.7760     0.9620 hc         1 0WU       0.058200
     13 H3          -0.7280    -0.1130    -1.4330 hc         1 0WU       0.057700
     14 H4          -0.3160    -0.8180     1.5080 hc         1 0WU       0.072200
     15 H5          -0.4690    -1.9830     0.1990 hc         1 0WU       0.072200
     16 H6           3.8840     0.2790     0.7780 hc         1 0WU       0.046033
     17 H7           3.7740     0.0090    -0.9500 hc         1 0WU       0.046033
     18 H8           3.6760     1.6490    -0.3140 hc         1 0WU       0.046033
     19 H9          -4.2970    -0.4100    -1.0800 ha         1 0WU       0.165500
     20 H10         -2.8360    -0.4370    -2.2050 ha         1 0WU       0.165500
     21 H11         -2.1920     0.3050     1.9630 hc         1 0WU       0.041033
     22 H12         -3.6810     0.9270     1.2780 hc         1 0WU       0.041033
     23 H13         -3.4940    -0.7960     1.5550 hc         1 0WU       0.041033
     24 H14          1.4940     2.5340    -0.2230 ha         1 0WU       0.176000
     25 C7           3.3850     0.6160    -0.1320 c3         1 0WU      -0.040900
@<TRIPOS>BOND
     1     1     2 1   
     2     1     7 1   
     3     1    11 1   
     4     1    12 1   
     5     2     3 1   
     6     2     4 1   
     7     2    13 1   
     8     3     8 1   
     9     3    14 1   
    10     3    15 1   
    11     4     5 2   
    12     4     6 1   
    13     5    19 1   
    14     5    20 1   
    15     6    21 1   
    16     6    22 1   
    17     6    23 1   
    18     7    10 2   
    19     7    24 1   
    20     8     9 2   
    21     8    10 1   
    22    10    25 1   
    23    16    25 1   
    24    17    25 1   
    25    18    25 1   
@<TRIPOS>SUBSTRUCTURE
     1 0WU         1 TEMP              0 ****  ****    0 ROOT
