@<TRIPOS>MOLECULE
0WV
   23    23     1     0     0
SMALL
No Charge or Current Charge


@<TRIPOS>ATOM
      1 C4           0.4670     1.3520     0.0430 ca         1 0WV      -0.138000
      2 C5           0.9990     0.0480     0.0570 ca         1 0WV      -0.013800
      3 C6           0.1110    -1.0460     0.0770 ca         1 0WV      -0.138000
      4 C8           2.4780    -0.1700     0.0480 ce         1 0WV      -0.062400
      5 C9           3.0520    -1.1620     0.7640 c2         1 0WV      -0.306000
      6 C10          3.3150     0.7220    -0.8530 c3         1 0WV      -0.054900
      7 C3          -0.9230     1.5590     0.0500 ca         1 0WV      -0.071000
      8 C1          -1.2780    -0.8430     0.0840 ca         1 0WV       0.141100
      9 O1          -2.1030    -1.9290     0.1010 oh         1 0WV      -0.541100
     10 C2          -1.8090     0.4650     0.0710 ca         1 0WV      -0.167300
     11 H1           1.1310     2.2130     0.0340 ha         1 0WV       0.115000
     12 H2           0.4970    -2.0610     0.0760 ha         1 0WV       0.129000
     13 H3          -3.7970     0.2730    -0.8020 hc         1 0WV       0.041367
     14 H4          -3.7850     0.2920     0.9750 hc         1 0WV       0.041367
     15 H5          -3.5480     1.7880     0.0690 hc         1 0WV       0.041367
     16 H6           2.4700    -1.8220     1.4080 ha         1 0WV       0.166500
     17 H7           4.1280    -1.3370     0.7400 ha         1 0WV       0.166500
     18 H8           3.6440     1.6220    -0.3210 hc         1 0WV       0.041700
     19 H9           4.2110     0.2040    -1.2140 hc         1 0WV       0.041700
     20 H10          2.7500     1.0430    -1.7370 hc         1 0WV       0.041700
     21 H11         -1.3080     2.5770     0.0410 ha         1 0WV       0.110000
     22 H12         -3.0290    -1.6070     0.1020 ho         1 0WV       0.466000
     23 C7          -3.3160     0.7160     0.0790 c3         1 0WV      -0.048800
@<TRIPOS>BOND
     1     1     2 ar  
     2     1     7 ar  
     3     1    11 1   
     4     2     3 ar  
     5     2     4 1   
     6     3     8 ar  
     7     3    12 1   
     8     4     5 2   
     9     4     6 1   
    10     5    16 1   
    11     5    17 1   
    12     6    18 1   
    13     6    19 1   
    14     6    20 1   
    15     7    10 ar  
    16     7    21 1   
    17     8     9 1   
    18     8    10 ar  
    19     9    22 1   
    20    10    23 1   
    21    13    23 1   
    22    14    23 1   
    23    15    23 1   
@<TRIPOS>SUBSTRUCTURE
     1 0WV         1 TEMP              0 ****  ****    0 ROOT
