@<TRIPOS>MOLECULE
0WV
   23    23     1     0     0
SMALL
bcc


@<TRIPOS>ATOM
      1 C4           0.4750     1.3200    -0.1020 ca         1 0WV      -0.156000
      2 C5           0.9920     0.0290     0.0070 ca         1 0WV      -0.013800
      3 C6           0.0900    -1.0300     0.1270 ca         1 0WV      -0.156000
      4 C8           2.4540    -0.2100    -0.0110 ce         1 0WV      -0.062400
      5 C9           3.0000    -1.2820     0.5680 c2         1 0WV      -0.206000
      6 C10          3.3140     0.8140    -0.6950 c3         1 0WV      -0.054900
      7 C3          -0.8960     1.5320    -0.0640 ca         1 0WV      -0.089000
      8 C1          -1.2800    -0.8090     0.1620 ca         1 0WV       0.141100
      9 O1          -2.0710    -1.8990     0.2790 oh         1 0WV      -0.502100
     10 C2          -1.8020     0.4870     0.0700 ca         1 0WV      -0.167300
     11 H1           1.1330     2.1720    -0.2040 ha         1 0WV       0.133000
     12 H2           0.4480    -2.0520     0.1750 ha         1 0WV       0.147000
     13 H3          -3.8030     0.2350    -0.7200 hc         1 0WV       0.041367
     14 H4          -3.7380     0.3810     1.0340 hc         1 0WV       0.041367
     15 H5          -3.4990     1.7940     0.0210 hc         1 0WV       0.041367
     16 H6           2.4160    -2.0180     1.1050 ha         1 0WV       0.116500
     17 H7           4.0680    -1.4510     0.5330 ha         1 0WV       0.116500
     18 H8           3.3030     1.7680    -0.1630 hc         1 0WV       0.041700
     19 H9           4.3490     0.4810    -0.7470 hc         1 0WV       0.041700
     20 H10          2.9660     1.0140    -1.7100 hc         1 0WV       0.041700
     21 H11         -1.2750     2.5440    -0.1410 ha         1 0WV       0.128000
     22 H12         -3.0030    -1.6550     0.2670 ho         1 0WV       0.427000
     23 C7          -3.2830     0.7310     0.1040 c3         1 0WV      -0.048800
@<TRIPOS>BOND
     1     1     2 ar  
     2     1     7 ar  
     3     1    11 1   
     4     2     3 ar  
     5     2     4 1   
     6     3     8 ar  
     7     3    12 1   
     8     4     5 2   
     9     4     6 1   
    10     5    16 1   
    11     5    17 1   
    12     6    18 1   
    13     6    19 1   
    14     6    20 1   
    15     7    10 ar  
    16     7    21 1   
    17     8     9 1   
    18     8    10 ar  
    19     9    22 1   
    20    10    23 1   
    21    13    23 1   
    22    14    23 1   
    23    15    23 1   
@<TRIPOS>SUBSTRUCTURE
     1 0WV         1 TEMP              0 ****  ****    0 ROOT
