@<TRIPOS>MOLECULE
0WW
   59    63     1     0     0
SMALL
bcc


@<TRIPOS>ATOM
      1 C1          -3.6730     1.7710     0.6890 c3         1 0WW       0.161800
      2 N1          -3.0440     1.0250    -0.3850 n7         1 0WW      -0.811200
      3 C2          -2.1780    -0.0310     0.0960 c3         1 0WW       0.160800
      4 C3          -1.5500    -0.7880    -1.0720 c3         1 0WW      -0.018100
      5 C4          -0.6700    -1.9070    -0.6040 ca         1 0WW      -0.072300
      6 C5          -1.1820    -3.1830    -0.2980 ca         1 0WW       0.174400
      7 N2          -2.5340    -3.3920    -0.4750 nc         1 0WW      -0.628100
      8 C6          -3.0010    -4.5470    -0.1900 cd         1 0WW       0.495800
      9 N3          -2.2570    -5.5840     0.2740 ns         1 0WW      -0.501400
     10 C7          -0.9010    -5.5140     0.4880 c          1 0WW       0.720100
     11 C8          -0.3300    -4.2100     0.1770 ca         1 0WW      -0.208600
     12 C9           1.0400    -4.0060     0.3640 ca         1 0WW      -0.018000
     13 C10          1.5510    -2.7600     0.0730 ca         1 0WW       0.092400
     14 C11          0.6830    -1.7450    -0.3970 ca         1 0WW      -0.044200
     15 N4           1.5000    -0.6540    -0.5740 na         1 0WW      -0.305300
     16 C12          2.7650    -1.0360    -0.2200 cc         1 0WW       0.663700
     17 N5           2.8350    -2.2860     0.1670 nd         1 0WW      -0.641100
     18 N6           3.8120    -0.1890    -0.2360 nu         1 0WW      -0.841200
     19 C13          3.7930     1.1030    -0.8890 c3         1 0WW       0.302100
     20 O1          -0.2770    -6.4780     0.9040 o          1 0WW      -0.615500
     21 C14         -4.6310     2.8340     0.1660 c6         1 0WW      -0.061700
     22 C15         -5.3530     3.5220     1.3240 c6         1 0WW      -0.068900
     23 C16         -6.3270     4.5900     0.8370 c6         1 0WW      -0.073900
     24 C17         -5.6240     5.6170    -0.0450 c6         1 0WW      -0.074400
     25 C18         -4.9000     4.9410    -1.2050 c6         1 0WW      -0.073900
     26 C19         -3.9310     3.8700    -0.7130 c6         1 0WW      -0.068900
     27 S1           5.2590     2.2330     1.2140 ss         1 0WW      -0.050800
     28 C20          6.6530     3.1640     0.8530 cc         1 0WW      -0.109100
     29 C21          6.8790     3.2290    -0.4870 cd         1 0WW      -0.154000
     30 C22          5.9080     2.5100    -1.2380 cd         1 0WW      -0.129000
     31 C23          4.9630     1.9190    -0.4560 cc         1 0WW      -0.109400
     32 H1          -4.2170     1.1100     1.3850 h1         1 0WW       0.029200
     33 H2          -2.8870     2.2540     1.2800 h1         1 0WW       0.029200
     34 H3          -3.7730     0.6090    -0.9550 hn         1 0WW       0.351800
     35 H5          -1.3890     0.4200     0.7060 h1         1 0WW       0.034200
     36 H6          -2.7000    -0.7470     0.7500 h1         1 0WW       0.034200
     37 H7          -2.3440    -1.1900    -1.7040 hc         1 0WW       0.055200
     38 H8          -0.9850    -0.0850    -1.6900 hc         1 0WW       0.055200
     39 H9          -4.0570    -4.7550    -0.3130 h5         1 0WW       0.044800
     40 H10         -2.7210    -6.4600     0.4750 hn         1 0WW       0.329500
     41 H11          1.6720    -4.8040     0.7300 ha         1 0WW       0.170000
     42 H12          1.2150     0.2480    -0.9170 hn         1 0WW       0.310700
     43 H14          4.7100    -0.6410    -0.1540 hn         1 0WW       0.457800
     44 H15          3.8120     1.0190    -1.9810 h1         1 0WW       0.047700
     45 H16          2.8690     1.6220    -0.6210 h1         1 0WW       0.047700
     46 H17         -5.3930     2.3280    -0.4460 hc         1 0WW       0.042700
     47 H18         -5.8780     2.7800     1.9310 hc         1 0WW       0.041200
     48 H19         -4.6090     3.9910     1.9800 hc         1 0WW       0.041200
     49 H20         -7.1340     4.1150     0.2680 hc         1 0WW       0.037450
     50 H21         -6.8000     5.0830     1.6900 hc         1 0WW       0.037450
     51 H22         -6.3410     6.3510    -0.4220 hc         1 0WW       0.037200
     52 H23         -4.8990     6.1730     0.5600 hc         1 0WW       0.037200
     53 H24         -5.6380     4.4780    -1.8690 hc         1 0WW       0.037450
     54 H25         -4.3670     5.6830    -1.8040 hc         1 0WW       0.037450
     55 H26         -3.1290     4.3420    -0.1310 hc         1 0WW       0.041200
     56 H27         -3.4500     3.3760    -1.5590 hc         1 0WW       0.041200
     57 H29          7.7110     3.7610    -0.9270 ha         1 0WW       0.156000
     58 H30          5.9140     2.4300    -2.3170 ha         1 0WW       0.152000
     59 H28          7.2360     3.6020     1.6480 h4         1 0WW       0.171000
@<TRIPOS>BOND
     1     1     2 1   
     2     1    21 1   
     3     1    32 1   
     4     1    33 1   
     5     2     3 1   
     6     2    34 1   
     7     3     4 1   
     8     3    35 1   
     9     3    36 1   
    10     4     5 1   
    11     4    37 1   
    12     4    38 1   
    13     5     6 ar  
    14     5    14 ar  
    15     6     7 1   
    16     6    11 ar  
    17     7     8 2   
    18     8     9 1   
    19     8    39 1   
    20     9    10 1   
    21     9    40 1   
    22    10    11 1   
    23    10    20 2   
    24    11    12 ar  
    25    12    13 ar  
    26    12    41 1   
    27    13    14 ar  
    28    13    17 1   
    29    14    15 1   
    30    15    16 1   
    31    15    42 1   
    32    16    17 2   
    33    16    18 1   
    34    18    19 1   
    35    18    43 1   
    36    19    31 1   
    37    19    44 1   
    38    19    45 1   
    39    21    22 1   
    40    21    26 1   
    41    21    46 1   
    42    22    23 1   
    43    22    47 1   
    44    22    48 1   
    45    23    24 1   
    46    23    49 1   
    47    23    50 1   
    48    24    25 1   
    49    24    51 1   
    50    24    52 1   
    51    25    26 1   
    52    25    53 1   
    53    25    54 1   
    54    26    55 1   
    55    26    56 1   
    56    27    28 1   
    57    27    31 1   
    58    28    29 2   
    59    28    59 1   
    60    29    30 1   
    61    29    57 1   
    62    30    31 2   
    63    30    58 1   
@<TRIPOS>SUBSTRUCTURE
     1 0WW         1 TEMP              0 ****  ****    0 ROOT
