@<TRIPOS>MOLECULE
0WW
   59    63     1     0     0
SMALL
No Charge or Current Charge


@<TRIPOS>ATOM
      1 C1          -3.7920     1.7490     0.7180 c3         1 0WW       0.161800
      2 N1          -3.1760     0.9390    -0.3500 n7         1 0WW      -0.866400
      3 C2          -2.3120    -0.1620     0.1180 c3         1 0WW       0.160800
      4 C3          -1.6910    -0.9140    -1.0760 c3         1 0WW      -0.018100
      5 C4          -0.7270    -2.0150    -0.6190 ca         1 0WW      -0.072300
      6 C5          -1.1670    -3.3380    -0.3180 ca         1 0WW       0.174400
      7 N2          -2.5400    -3.6360    -0.4510 nc         1 0WW      -0.628100
      8 C6          -2.8560    -4.8970    -0.1480 cd         1 0WW       0.495800
      9 N3          -1.9820    -5.8620     0.2590 ns         1 0WW      -0.434400
     10 C7          -0.6560    -5.6730     0.4180 c          1 0WW       0.577600
     11 C8          -0.2040    -4.2970     0.1060 ca         1 0WW      -0.208600
     12 C9           1.1650    -3.9580     0.2380 ca         1 0WW       0.000000
     13 C10          1.5600    -2.6500    -0.0550 ca         1 0WW       0.092400
     14 C11          0.6400    -1.7280    -0.4650 ca         1 0WW      -0.044200
     15 N4           1.3300    -0.5670    -0.6580 na         1 0WW      -0.355600
     16 C12          2.6440    -0.8420    -0.3560 cc         1 0WW       0.663700
     17 N5           2.8420    -2.1040     0.0180 nd         1 0WW      -0.641100
     18 N6           3.6510     0.0490    -0.4230 nu         1 0WW      -0.896400
     19 C13          3.5390     1.4860    -0.6270 c3         1 0WW       0.302100
     20 O1           0.0850    -6.5720     0.7860 o          1 0WW      -0.540000
     21 C14         -4.6860     2.8970     0.1640 c6         1 0WW      -0.061700
     22 C15         -5.4540     3.6050     1.3160 c6         1 0WW      -0.068900
     23 C16         -6.3590     4.7450     0.7850 c6         1 0WW      -0.073900
     24 C17         -5.5420     5.7730    -0.0340 c6         1 0WW      -0.074400
     25 C18         -4.7760     5.0810    -1.1880 c6         1 0WW      -0.073900
     26 C19         -3.8720     3.9400    -0.6590 c6         1 0WW      -0.068900
     27 S1           5.1110     3.1510     1.0530 ss         1 0WW       0.239000
     28 C20          6.8020     3.3960     0.6240 cc         1 0WW      -0.236000
     29 C21          7.1250     2.7100    -0.5190 cd         1 0WW      -0.136000
     30 C22          6.0360     1.9810    -1.0680 cd         1 0WW      -0.111000
     31 C23          4.8750     2.1030    -0.3440 cc         1 0WW      -0.254300
     32 H1          -4.4140     1.1060     1.3560 h1         1 0WW       0.029200
     33 H2          -3.0140     2.1900     1.3570 h1         1 0WW       0.029200
     34 H3          -3.9310     0.5340    -0.9160 hn         1 0WW       0.407000
     35 H5          -1.5010     0.2340     0.7450 h1         1 0WW       0.034200
     36 H6          -2.8880    -0.8710     0.7280 h1         1 0WW       0.034200
     37 H7          -2.4910    -1.3280    -1.7010 hc         1 0WW       0.055200
     38 H8          -1.1680    -0.1940    -1.7160 hc         1 0WW       0.055200
     39 H9          -3.8750    -5.2590    -0.2080 h5         1 0WW       0.044800
     40 H10         -2.3230    -6.7900     0.4630 hn         1 0WW       0.329500
     41 H11          1.9020    -4.6870     0.5650 ha         1 0WW       0.152000
     42 H12          0.9710     0.3220    -0.9670 hn         1 0WW       0.361000
     43 H14          4.5370    -0.3180    -0.0920 hn         1 0WW       0.513000
     44 H15          3.2450     1.7040    -1.6630 h1         1 0WW       0.047700
     45 H16          2.7810     1.9120     0.0450 h1         1 0WW       0.047700
     46 H17         -5.4250     2.4250    -0.4990 hc         1 0WW       0.042700
     47 H18         -6.0690     2.8750     1.8610 hc         1 0WW       0.041200
     48 H19         -4.7390     4.0130     2.0450 hc         1 0WW       0.041200
     49 H20         -7.1570     4.3230     0.1600 hc         1 0WW       0.037450
     50 H21         -6.8550     5.2490     1.6260 hc         1 0WW       0.037450
     51 H22         -6.2110     6.5440    -0.4400 hc         1 0WW       0.037200
     52 H23         -4.8300     6.2910     0.6240 hc         1 0WW       0.037200
     53 H24         -5.4920     4.6770    -1.9180 hc         1 0WW       0.037450
     54 H25         -4.1670     5.8200    -1.7260 hc         1 0WW       0.037450
     55 H26         -3.0720     4.3630    -0.0360 hc         1 0WW       0.041200
     56 H27         -3.3760     3.4510    -1.5090 hc         1 0WW       0.041200
     57 H29          8.1160     2.7240    -0.9630 ha         1 0WW       0.138000
     58 H30          6.1150     1.3840    -1.9730 ha         1 0WW       0.134000
     59 H28          7.4250     4.0260     1.2460 h4         1 0WW       0.153000
@<TRIPOS>BOND
     1     1     2 1   
     2     1    21 1   
     3     1    32 1   
     4     1    33 1   
     5     2     3 1   
     6     2    34 1   
     7     3     4 1   
     8     3    35 1   
     9     3    36 1   
    10     4     5 1   
    11     4    37 1   
    12     4    38 1   
    13     5     6 ar  
    14     5    14 ar  
    15     6     7 1   
    16     6    11 ar  
    17     7     8 2   
    18     8     9 1   
    19     8    39 1   
    20     9    10 1   
    21     9    40 1   
    22    10    11 1   
    23    10    20 2   
    24    11    12 ar  
    25    12    13 ar  
    26    12    41 1   
    27    13    14 ar  
    28    13    17 1   
    29    14    15 1   
    30    15    16 1   
    31    15    42 1   
    32    16    17 2   
    33    16    18 1   
    34    18    19 1   
    35    18    43 1   
    36    19    31 1   
    37    19    44 1   
    38    19    45 1   
    39    21    22 1   
    40    21    26 1   
    41    21    46 1   
    42    22    23 1   
    43    22    47 1   
    44    22    48 1   
    45    23    24 1   
    46    23    49 1   
    47    23    50 1   
    48    24    25 1   
    49    24    51 1   
    50    24    52 1   
    51    25    26 1   
    52    25    53 1   
    53    25    54 1   
    54    26    55 1   
    55    26    56 1   
    56    27    28 1   
    57    27    31 1   
    58    28    29 2   
    59    28    59 1   
    60    29    30 1   
    61    29    57 1   
    62    30    31 2   
    63    30    58 1   
@<TRIPOS>SUBSTRUCTURE
     1 0WW         1 TEMP              0 ****  ****    0 ROOT
