@<TRIPOS>MOLECULE
0WX
   68    72     1     0     0
SMALL
bcc


@<TRIPOS>ATOM
      1 C2           5.4760    -2.6730    -0.1530 c          1 0WX       0.720100
      2 O14          5.9390    -3.7250    -0.5660 o          1 0WX      -0.615500
      3 N3           6.2970    -1.6580     0.2810 ns         1 0WX      -0.502400
      4 C4           5.8390    -0.4690     0.7520 cc         1 0WX       0.495800
      5 N5           4.6030    -0.1540     0.8450 nd         1 0WX      -0.627100
      6 C6           3.6710    -1.0860     0.4390 ca         1 0WX       0.174400
      7 C10          2.3110    -0.7380     0.5400 ca         1 0WX      -0.072300
      8 C18          1.8600     0.6050     1.0300 c3         1 0WX      -0.017100
      9 C19          1.8540     1.6460    -0.0880 c3         1 0WX       0.161800
     10 N20          1.3470     2.9130     0.3940 n7         1 0WX      -0.815200
     11 C21          1.3050     3.9380    -0.6310 c3         1 0WX       0.162800
     12 C22          0.7180     5.2450    -0.1130 c6         1 0WX      -0.060700
     13 C27          0.7840     6.3270    -1.1910 c6         1 0WX      -0.068900
     14 C26          0.1910     7.6500    -0.7140 c6         1 0WX      -0.073900
     15 C25         -1.2410     7.4690    -0.2210 c6         1 0WX      -0.074400
     16 C24         -1.3130     6.3960     0.8600 c6         1 0WX      -0.073900
     17 C23         -0.7190     5.0760     0.3770 c6         1 0WX      -0.068900
     18 C9           1.4180    -1.7000     0.1180 ca         1 0WX      -0.045200
     19 N11          0.0450    -1.7020     0.0790 na         1 0WX      -0.303300
     20 C12         -0.3450    -2.9130    -0.4220 cc         1 0WX       0.661700
     21 N16         -1.6390    -3.2240    -0.6140 nu         1 0WX      -0.837200
     22 C17         -2.7250    -2.4940     0.0080 c3         1 0WX       0.216800
     23 N13          0.6660    -3.6990    -0.7090 nd         1 0WX      -0.643100
     24 C8           1.7840    -2.9720    -0.3860 ca         1 0WX       0.092400
     25 C7           3.1190    -3.3010    -0.4790 ca         1 0WX      -0.018000
     26 C1           4.0570    -2.3520    -0.0640 ca         1 0WX      -0.208600
     27 H1           7.2950    -1.8120     0.2480 hn         1 0WX       0.329500
     28 H2           6.6060     0.2310     1.0590 h5         1 0WX       0.043800
     29 H3           0.8550     0.5370     1.4550 hc         1 0WX       0.054200
     30 H4           2.5140     0.9440     1.8360 hc         1 0WX       0.054200
     31 H5           2.8670     1.7190    -0.5150 h1         1 0WX       0.034700
     32 H6           2.3000     4.1360    -1.0640 h1         1 0WX       0.028700
     33 H7           0.6820     3.5730    -1.4550 h1         1 0WX       0.028700
     34 H8           1.3310     5.5820     0.7360 hc         1 0WX       0.043700
     35 H9           1.8200     6.4750    -1.5110 hc         1 0WX       0.040950
     36 H10          0.2330     5.9830    -2.0740 hc         1 0WX       0.040950
     37 H11          0.8060     8.0490     0.1010 hc         1 0WX       0.037200
     38 H12          0.2270     8.3880    -1.5190 hc         1 0WX       0.037200
     39 H13         -1.6350     8.4170     0.1550 hc         1 0WX       0.037200
     40 H14         -1.8780     7.1790    -1.0630 hc         1 0WX       0.037200
     41 H15         -0.7620     6.7350     1.7440 hc         1 0WX       0.037200
     42 H16         -2.3480     6.2470     1.1800 hc         1 0WX       0.037200
     43 H17         -1.3270     4.6830    -0.4490 hc         1 0WX       0.040950
     44 H18         -0.7590     4.3290     1.1720 hc         1 0WX       0.040950
     45 H19         -0.5580    -0.9460     0.3600 hn         1 0WX       0.312700
     46 H20         -1.7990    -4.2010    -0.8070 hn         1 0WX       0.449800
     47 H21         -2.6930    -2.5700     1.1010 h1         1 0WX       0.046700
     48 H22         -2.6390    -1.4360    -0.2520 h1         1 0WX       0.046700
     49 H25          3.4380    -4.2610    -0.8630 ha         1 0WX       0.170000
     50 C3          -4.0540    -3.0440    -0.4880 c3         1 0WX       0.158800
     51 N1          -5.1740    -2.3840     0.1450 n3         1 0WX      -0.723600
     52 C11         -6.3770    -3.1970     0.1200 c6         1 0WX       0.128300
     53 C13         -7.4940    -2.4920     0.8650 c6         1 0WX       0.130400
     54 O1          -7.7580    -1.2180     0.3200 os         1 0WX      -0.400600
     55 C15         -6.5970    -0.4180     0.3300 c6         1 0WX       0.130400
     56 C16         -5.4560    -1.0770    -0.4230 c6         1 0WX       0.128300
     57 H26          1.2040     1.3030    -0.9000 h1         1 0WX       0.034700
     58 H27          1.9390     3.2360     1.1510 hn         1 0WX       0.352800
     59 H23         -4.0960    -2.9800    -1.5870 h1         1 0WX       0.043200
     60 H24         -4.1000    -4.1070    -0.2350 h1         1 0WX       0.043200
     61 H28         -6.7040    -3.4200    -0.9100 h1         1 0WX       0.042700
     62 H29         -6.1780    -4.1540     0.6090 h1         1 0WX       0.042700
     63 H30         -8.4140    -3.0740     0.8010 h1         1 0WX       0.053200
     64 H31         -7.2210    -2.4050     1.9270 h1         1 0WX       0.053200
     65 H32         -6.8520     0.5340    -0.1380 h1         1 0WX       0.053200
     66 H33         -6.2800    -0.2130     1.3620 h1         1 0WX       0.053200
     67 H34         -4.5790    -0.4320    -0.3440 h1         1 0WX       0.042700
     68 H35         -5.7100    -1.1490    -1.4940 h1         1 0WX       0.042700
@<TRIPOS>BOND
     1     1     2 2   
     2     1     3 1   
     3     1    26 1   
     4     3     4 1   
     5     3    27 1   
     6     4     5 2   
     7     4    28 1   
     8     5     6 1   
     9     6     7 ar  
    10     6    26 ar  
    11     7     8 1   
    12     7    18 ar  
    13     8     9 1   
    14     8    29 1   
    15     8    30 1   
    16     9    10 1   
    17     9    31 1   
    18     9    57 1   
    19    10    11 1   
    20    10    58 1   
    21    11    12 1   
    22    11    32 1   
    23    11    33 1   
    24    12    13 1   
    25    12    17 1   
    26    12    34 1   
    27    13    14 1   
    28    13    35 1   
    29    13    36 1   
    30    14    15 1   
    31    14    37 1   
    32    14    38 1   
    33    15    16 1   
    34    15    39 1   
    35    15    40 1   
    36    16    17 1   
    37    16    41 1   
    38    16    42 1   
    39    17    43 1   
    40    17    44 1   
    41    18    19 1   
    42    18    24 ar  
    43    19    20 1   
    44    19    45 1   
    45    20    21 1   
    46    20    23 2   
    47    21    22 1   
    48    21    46 1   
    49    22    47 1   
    50    22    48 1   
    51    22    50 1   
    52    23    24 1   
    53    24    25 ar  
    54    25    26 ar  
    55    25    49 1   
    56    50    51 1   
    57    50    59 1   
    58    50    60 1   
    59    51    52 1   
    60    51    56 1   
    61    52    53 1   
    62    52    61 1   
    63    52    62 1   
    64    53    54 1   
    65    53    63 1   
    66    53    64 1   
    67    54    55 1   
    68    55    56 1   
    69    55    65 1   
    70    55    66 1   
    71    56    67 1   
    72    56    68 1   
@<TRIPOS>SUBSTRUCTURE
     1 0WX         1 TEMP              0 ****  ****    0 ROOT
