@<TRIPOS>MOLECULE
0WX
   68    72     1     0     0
SMALL
No Charge or Current Charge


@<TRIPOS>ATOM
      1 C2           5.6320    -2.7860    -0.2450 c          1 0WX       0.577600
      2 O14          6.0180    -3.8790    -0.6310 o          1 0WX      -0.540000
      3 N3           6.4930    -1.7960     0.0670 ns         1 0WX      -0.435400
      4 C4           6.1240    -0.5520     0.5020 cc         1 0WX       0.495800
      5 N5           4.8670    -0.1470     0.6810 nd         1 0WX      -0.627100
      6 C6           3.8820    -1.1140     0.3840 ca         1 0WX       0.174400
      7 C10          2.5110    -0.7590     0.5500 ca         1 0WX      -0.072300
      8 C18          2.0720     0.6270     1.0340 c3         1 0WX      -0.017100
      9 C19          1.9210     1.6220    -0.1340 c3         1 0WX       0.161800
     10 N20          1.4220     2.9240     0.3490 n7         1 0WX      -0.870400
     11 C21          1.2040     3.9400    -0.6990 c3         1 0WX       0.162800
     12 C22          0.6680     5.2870    -0.1310 c6         1 0WX      -0.060700
     13 C27          0.6270     6.3770    -1.2390 c6         1 0WX      -0.068900
     14 C26          0.1060     7.7300    -0.6920 c6         1 0WX      -0.073900
     15 C25         -1.2870     7.5690    -0.0370 c6         1 0WX      -0.074400
     16 C24         -1.2600     6.4890     1.0720 c6         1 0WX      -0.073900
     17 C23         -0.7370     5.1360     0.5270 c6         1 0WX      -0.068900
     18 C9           1.5460    -1.7290     0.2320 ca         1 0WX      -0.045200
     19 N11          0.1840    -1.6720     0.2720 na         1 0WX      -0.353600
     20 C12         -0.2700    -2.9010    -0.1480 cc         1 0WX       0.661700
     21 N16         -1.5690    -3.2470    -0.2510 nu         1 0WX      -0.892400
     22 C17         -2.7390    -2.4140     0.0860 c3         1 0WX       0.216800
     23 N13          0.7130    -3.7430    -0.4580 nd         1 0WX      -0.643100
     24 C8           1.8580    -2.9830    -0.2130 ca         1 0WX       0.092400
     25 C7           3.1930    -3.3630    -0.3760 ca         1 0WX       0.000000
     26 C1           4.2060    -2.4200    -0.0760 ca         1 0WX      -0.208600
     27 H1           7.4750    -2.0070    -0.0360 hn         1 0WX       0.329500
     28 H2           6.9760     0.0900     0.6930 h5         1 0WX       0.043800
     29 H3           1.1170     0.5570     1.5660 hc         1 0WX       0.054200
     30 H4           2.7830     1.0300     1.7650 hc         1 0WX       0.054200
     31 H5           2.8940     1.7430    -0.6300 h1         1 0WX       0.034700
     32 H6           2.1510     4.1390    -1.2210 h1         1 0WX       0.028700
     33 H7           0.4900     3.5680    -1.4470 h1         1 0WX       0.028700
     34 H8           1.3840     5.6080     0.6390 hc         1 0WX       0.043700
     35 H9           1.6310     6.5190    -1.6620 hc         1 0WX       0.040950
     36 H10         -0.0150     6.0440    -2.0660 hc         1 0WX       0.040950
     37 H11          0.8170     8.1310     0.0440 hc         1 0WX       0.037200
     38 H12          0.0520     8.4650    -1.5060 hc         1 0WX       0.037200
     39 H13         -1.6150     8.5290     0.3850 hc         1 0WX       0.037200
     40 H14         -2.0270     7.2950    -0.8020 hc         1 0WX       0.037200
     41 H15         -0.6210     6.8260     1.9000 hc         1 0WX       0.037200
     42 H16         -2.2680     6.3580     1.4890 hc         1 0WX       0.037200
     43 H17         -1.4500     4.7360    -0.2070 hc         1 0WX       0.040950
     44 H18         -0.6970     4.4090     1.3490 hc         1 0WX       0.040950
     45 H19         -0.3960    -0.8960     0.5490 hn         1 0WX       0.363000
     46 H20         -1.7050    -4.2060    -0.5630 hn         1 0WX       0.505000
     47 H21         -2.6990    -2.1320     1.1460 h1         1 0WX       0.046700
     48 H22         -2.7090    -1.4910    -0.5080 h1         1 0WX       0.046700
     49 H25          3.4340    -4.3620    -0.7300 ha         1 0WX       0.152000
     50 C3          -4.0840    -3.1510    -0.1810 c3         1 0WX       0.158800
     51 N1          -5.3130    -2.4090     0.2190 n3         1 0WX      -0.723600
     52 C11         -6.5440    -3.2570     0.1250 c6         1 0WX       0.128300
     53 C13         -7.8190    -2.4810     0.5680 c6         1 0WX       0.153600
     54 O1          -7.9560    -1.2610    -0.1990 os         1 0WX      -0.447000
     55 C15         -6.8110    -0.3860    -0.0620 c6         1 0WX       0.153600
     56 C16         -5.5110    -1.1160    -0.5150 c6         1 0WX       0.128300
     57 H26          1.2230     1.1980    -0.8700 h1         1 0WX       0.034700
     58 H27          2.1040     3.3000     1.0180 hn         1 0WX       0.408000
     59 H23         -4.1340    -3.4000    -1.2500 h1         1 0WX       0.043200
     60 H24         -4.0490    -4.1020     0.3670 h1         1 0WX       0.043200
     61 H28         -6.6880    -3.6070    -0.9090 h1         1 0WX       0.042700
     62 H29         -6.4400    -4.1520     0.7550 h1         1 0WX       0.042700
     63 H30         -8.7110    -3.1050     0.4140 h1         1 0WX       0.053200
     64 H31         -7.7550    -2.2330     1.6370 h1         1 0WX       0.053200
     65 H32         -6.9690     0.5130    -0.6740 h1         1 0WX       0.053200
     66 H33         -6.7180    -0.0720     0.9880 h1         1 0WX       0.053200
     67 H34         -4.6630    -0.4380    -0.3460 h1         1 0WX       0.042700
     68 H35         -5.5700    -1.2970    -1.5990 h1         1 0WX       0.042700
@<TRIPOS>BOND
     1     1     2 2   
     2     1     3 1   
     3     1    26 1   
     4     3     4 1   
     5     3    27 1   
     6     4     5 2   
     7     4    28 1   
     8     5     6 1   
     9     6     7 ar  
    10     6    26 ar  
    11     7     8 1   
    12     7    18 ar  
    13     8     9 1   
    14     8    29 1   
    15     8    30 1   
    16     9    10 1   
    17     9    31 1   
    18     9    57 1   
    19    10    11 1   
    20    10    58 1   
    21    11    12 1   
    22    11    32 1   
    23    11    33 1   
    24    12    13 1   
    25    12    17 1   
    26    12    34 1   
    27    13    14 1   
    28    13    35 1   
    29    13    36 1   
    30    14    15 1   
    31    14    37 1   
    32    14    38 1   
    33    15    16 1   
    34    15    39 1   
    35    15    40 1   
    36    16    17 1   
    37    16    41 1   
    38    16    42 1   
    39    17    43 1   
    40    17    44 1   
    41    18    19 1   
    42    18    24 ar  
    43    19    20 1   
    44    19    45 1   
    45    20    21 1   
    46    20    23 2   
    47    21    22 1   
    48    21    46 1   
    49    22    47 1   
    50    22    48 1   
    51    22    50 1   
    52    23    24 1   
    53    24    25 ar  
    54    25    26 ar  
    55    25    49 1   
    56    50    51 1   
    57    50    59 1   
    58    50    60 1   
    59    51    52 1   
    60    51    56 1   
    61    52    53 1   
    62    52    61 1   
    63    52    62 1   
    64    53    54 1   
    65    53    63 1   
    66    53    64 1   
    67    54    55 1   
    68    55    56 1   
    69    55    65 1   
    70    55    66 1   
    71    56    67 1   
    72    56    68 1   
@<TRIPOS>SUBSTRUCTURE
     1 0WX         1 TEMP              0 ****  ****    0 ROOT
