@<TRIPOS>MOLECULE
0WY
   67    71     1     0     0
SMALL
No Charge or Current Charge


@<TRIPOS>ATOM
      1 C1           0.5730     3.8530     0.7640 c3         1 0WY       0.162800
      2 N1           0.8610     2.8560    -0.2850 n7         1 0WY      -0.869400
      3 C2           1.4350     1.5850     0.2000 c3         1 0WY       0.159800
      4 C3           1.6590     0.6030    -0.9690 c3         1 0WY      -0.011100
      5 C4           2.1690    -0.7580    -0.4820 ca         1 0WY      -0.099300
      6 C5           3.5560    -1.0390    -0.3100 ca         1 0WY       0.226400
      7 N2           4.4920    -0.0240    -0.6020 nc         1 0WY      -0.711100
      8 C6           5.7270    -0.4070    -0.4050 cd         1 0WY       0.707800
      9 N3           6.1870    -1.5880     0.0210 ns         1 0WY      -0.454400
     10 C7           5.3820    -2.6210     0.3320 c          1 0WY       0.592600
     11 C8           3.9400    -2.3290     0.1530 ca         1 0WY      -0.234600
     12 C9           2.9760    -3.3240     0.4480 ca         1 0WY       0.011000
     13 C10          1.6240    -3.0120     0.2780 ca         1 0WY       0.076400
     14 C11          1.2530    -1.7760    -0.1690 ca         1 0WY      -0.028200
     15 N4          -0.1100    -1.7870    -0.2180 na         1 0WY      -0.359600
     16 C12         -0.5040    -3.0370     0.2010 cc         1 0WY       0.664700
     17 N5           0.5170    -3.8290     0.5160 nd         1 0WY      -0.645100
     18 N6          -1.7850    -3.4470     0.2960 nu         1 0WY      -0.905400
     19 C13         -2.9890    -2.6400     0.0660 c3         1 0WY       0.227800
     20 O1           5.8230    -3.6890     0.7260 o          1 0WY      -0.543000
     21 C14         -0.0410     5.1660     0.1930 c6         1 0WY      -0.060700
     22 C15         -1.4280     4.9310    -0.4760 c6         1 0WY      -0.068900
     23 C16         -2.0290     6.2510    -1.0220 c6         1 0WY      -0.073900
     24 C17         -2.1320     7.3240     0.0880 c6         1 0WY      -0.074400
     25 C18         -0.7570     7.5680     0.7550 c6         1 0WY      -0.073900
     26 C19         -0.1580     6.2490     1.3040 c6         1 0WY      -0.068900
     27 N7           6.6340     0.5150    -0.6760 nv         1 0WY      -1.035200
     28 C20         -4.2660    -3.4630     0.3220 c3         1 0WY      -0.043100
     29 C21         -5.5280    -2.6430     0.0870 ca         1 0WY      -0.089300
     30 C22         -7.2560    -1.1330     0.9200 ca         1 0WY      -0.108000
     31 C23         -6.0950    -1.8960     1.1380 ca         1 0WY      -0.104000
     32 C24         -7.8560    -1.1120    -0.3510 ca         1 0WY      -0.105000
     33 C25         -6.1330    -2.6170    -1.1850 ca         1 0WY      -0.104000
     34 C26         -7.2930    -1.8540    -1.4030 ca         1 0WY      -0.108000
     35 H1          -0.1240     3.4360     1.5040 h1         1 0WY       0.028700
     36 H2           1.5010     4.1090     1.2930 h1         1 0WY       0.028700
     37 H3           1.5240     3.2740    -0.9470 hn         1 0WY       0.405000
     38 H5           2.3950     1.7630     0.7050 h1         1 0WY       0.036200
     39 H6           0.7580     1.1160     0.9280 h1         1 0WY       0.036200
     40 H7           0.7160     0.4800    -1.5140 hc         1 0WY       0.050700
     41 H8           2.3540     1.0490    -1.6900 hc         1 0WY       0.050700
     42 H9           7.1740    -1.7330     0.1470 hn         1 0WY       0.323500
     43 H10          3.2660    -4.3090     0.8050 ha         1 0WY       0.149000
     44 H11         -0.7250    -1.0420    -0.5000 hn         1 0WY       0.361000
     45 H13         -1.8760    -4.3900     0.6650 hn         1 0WY       0.509000
     46 H14         -2.9860    -1.7660     0.7330 h1         1 0WY       0.041700
     47 H15         -3.0000    -2.2730    -0.9700 h1         1 0WY       0.041700
     48 H16          0.6600     5.5330    -0.5700 hc         1 0WY       0.042700
     49 H17         -1.3370     4.2100    -1.2990 hc         1 0WY       0.041450
     50 H18         -2.1210     4.4860     0.2510 hc         1 0WY       0.041450
     51 H19         -1.4050     6.6290    -1.8440 hc         1 0WY       0.036950
     52 H20         -3.0230     6.0600    -1.4480 hc         1 0WY       0.036950
     53 H21         -2.5140     8.2630    -0.3340 hc         1 0WY       0.037200
     54 H22         -2.8600     7.0030     0.8470 hc         1 0WY       0.037200
     55 H23         -0.0660     8.0140     0.0260 hc         1 0WY       0.036950
     56 H24         -0.8630     8.2970     1.5710 hc         1 0WY       0.036950
     57 H25         -0.7850     5.8750     2.1250 hc         1 0WY       0.041450
     58 H26          0.8320     6.4510     1.7360 hc         1 0WY       0.041450
     59 H27          6.2550     1.3160    -1.1650 hn         1 0WY       0.486500
     60 H28          7.5390     0.1970    -1.0000 hn         1 0WY       0.486500
     61 H29         -4.2630    -4.3440    -0.3320 hc         1 0WY       0.058200
     62 H30         -4.2500    -3.8410     1.3510 hc         1 0WY       0.058200
     63 H31         -7.6900    -0.5580     1.7350 ha         1 0WY       0.115000
     64 H32         -5.6370    -1.9040     2.1240 ha         1 0WY       0.112000
     65 H33         -8.7540    -0.5220    -0.5200 ha         1 0WY       0.115000
     66 H34         -5.7030    -3.1860    -2.0070 ha         1 0WY       0.112000
     67 H35         -7.7560    -1.8380    -2.3880 ha         1 0WY       0.115000
@<TRIPOS>BOND
     1     1     2 1   
     2     1    21 1   
     3     1    35 1   
     4     1    36 1   
     5     2     3 1   
     6     2    37 1   
     7     3     4 1   
     8     3    38 1   
     9     3    39 1   
    10     4     5 1   
    11     4    40 1   
    12     4    41 1   
    13     5     6 ar  
    14     5    14 ar  
    15     6     7 1   
    16     6    11 ar  
    17     7     8 2   
    18     8     9 1   
    19     8    27 1   
    20     9    10 1   
    21     9    42 1   
    22    10    11 1   
    23    10    20 2   
    24    11    12 ar  
    25    12    13 ar  
    26    12    43 1   
    27    13    14 ar  
    28    13    17 1   
    29    14    15 1   
    30    15    16 1   
    31    15    44 1   
    32    16    17 2   
    33    16    18 1   
    34    18    19 1   
    35    18    45 1   
    36    19    28 1   
    37    19    46 1   
    38    19    47 1   
    39    21    22 1   
    40    21    26 1   
    41    21    48 1   
    42    22    23 1   
    43    22    49 1   
    44    22    50 1   
    45    23    24 1   
    46    23    51 1   
    47    23    52 1   
    48    24    25 1   
    49    24    53 1   
    50    24    54 1   
    51    25    26 1   
    52    25    55 1   
    53    25    56 1   
    54    26    57 1   
    55    26    58 1   
    56    27    59 1   
    57    27    60 1   
    58    28    29 1   
    59    28    61 1   
    60    28    62 1   
    61    29    31 ar  
    62    29    33 ar  
    63    30    31 ar  
    64    30    32 ar  
    65    30    63 1   
    66    31    64 1   
    67    32    34 ar  
    68    32    65 1   
    69    33    34 ar  
    70    33    66 1   
    71    34    67 1   
@<TRIPOS>SUBSTRUCTURE
     1 0WY         1 TEMP              0 ****  ****    0 ROOT
