@<TRIPOS>MOLECULE
0WY
   67    71     1     0     0
SMALL
bcc


@<TRIPOS>ATOM
      1 C1           0.6960     3.8640     0.6660 c3         1 0WY       0.162800
      2 N1           0.7870     2.8300    -0.3460 n7         1 0WY      -0.814200
      3 C2           1.3490     1.5920     0.1540 c3         1 0WY       0.159800
      4 C3           1.4320     0.5450    -0.9540 c3         1 0WY      -0.011100
      5 C4           1.9620    -0.7630    -0.4490 ca         1 0WY      -0.099300
      6 C5           3.3440    -1.0020    -0.2970 ca         1 0WY       0.226400
      7 N2           4.2090    -0.0050    -0.6720 nc         1 0WY      -0.711100
      8 C6           5.4760    -0.2090    -0.5340 cd         1 0WY       0.707800
      9 N3           5.9940    -1.3750    -0.0370 ns         1 0WY      -0.521400
     10 C7           5.2280    -2.4470     0.3610 c          1 0WY       0.735100
     11 C8           3.7970    -2.2380     0.2210 ca         1 0WY      -0.234600
     12 C9           2.9170    -3.2580     0.6010 ca         1 0WY      -0.007000
     13 C10          1.5670    -3.0340     0.4570 ca         1 0WY       0.076400
     14 C11          1.1290    -1.7920    -0.0630 ca         1 0WY      -0.028200
     15 N4          -0.2410    -1.8960    -0.0760 na         1 0WY      -0.309300
     16 C12         -0.5600    -3.1380     0.4040 cc         1 0WY       0.664700
     17 N5           0.4910    -3.8440     0.7390 nd         1 0WY      -0.645100
     18 N6          -1.8310    -3.5700     0.4800 nu         1 0WY      -0.850200
     19 C13         -2.9870    -2.7240     0.2790 c3         1 0WY       0.227800
     20 O1           5.7590    -3.4590     0.7920 o          1 0WY      -0.618500
     21 C14          0.0680     5.1440     0.1270 c6         1 0WY      -0.060700
     22 C15         -1.3560     4.9170    -0.3770 c6         1 0WY      -0.068900
     23 C16         -1.9910     6.2090    -0.8810 c6         1 0WY      -0.073900
     24 C17         -1.9680     7.2960     0.1890 c6         1 0WY      -0.074400
     25 C18         -0.5490     7.5340     0.6940 c6         1 0WY      -0.073900
     26 C19          0.0850     6.2390     1.1930 c6         1 0WY      -0.068900
     27 N7           6.3730     0.7580    -0.8340 nv         1 0WY      -0.924800
     28 C20         -4.2470    -3.5810     0.1960 c3         1 0WY      -0.043100
     29 C21         -5.4640    -2.7320    -0.0390 ca         1 0WY      -0.089300
     30 C22         -7.1950    -1.2680     0.8020 ca         1 0WY      -0.126000
     31 C23         -6.0930    -2.0840     1.0220 ca         1 0WY      -0.122000
     32 C24         -7.6850    -1.0890    -0.4850 ca         1 0WY      -0.123000
     33 C25         -5.9630    -2.5460    -1.3250 ca         1 0WY      -0.122000
     34 C26         -7.0660    -1.7320    -1.5490 ca         1 0WY      -0.126000
     35 H1           0.0760     3.4860     1.4880 h1         1 0WY       0.028700
     36 H2           1.6770     4.1030     1.1090 h1         1 0WY       0.028700
     37 H3           1.3710     3.1700    -1.1030 hn         1 0WY       0.349800
     38 H5           2.3490     1.7200     0.5970 h1         1 0WY       0.036200
     39 H6           0.7030     1.2200     0.9550 h1         1 0WY       0.036200
     40 H7           0.4400     0.4130    -1.3940 hc         1 0WY       0.050700
     41 H8           2.0760     0.9170    -1.7550 hc         1 0WY       0.050700
     42 H9           6.9960    -1.4740     0.0580 hn         1 0WY       0.323500
     43 H10          3.2950    -4.1920     0.9970 ha         1 0WY       0.167000
     44 H11         -0.8890    -1.1860    -0.3780 hn         1 0WY       0.310700
     45 H13         -1.9590    -4.4080     1.0260 hn         1 0WY       0.453800
     46 H14         -3.0950    -1.9840     1.0800 h1         1 0WY       0.041700
     47 H15         -2.8780    -2.1740    -0.6590 h1         1 0WY       0.041700
     48 H16          0.6790     5.4930    -0.7190 hc         1 0WY       0.042700
     49 H17         -1.3560     4.1610    -1.1650 hc         1 0WY       0.041450
     50 H18         -1.9590     4.5110     0.4450 hc         1 0WY       0.041450
     51 H19         -1.4430     6.5590    -1.7630 hc         1 0WY       0.036950
     52 H20         -3.0160     6.0210    -1.2100 hc         1 0WY       0.036950
     53 H21         -2.3950     8.2240    -0.1990 hc         1 0WY       0.037200
     54 H22         -2.6020     6.9890     1.0290 hc         1 0WY       0.037200
     55 H23          0.0600     7.9460    -0.1180 hc         1 0WY       0.036950
     56 H24         -0.5490     8.2820     1.4910 hc         1 0WY       0.036950
     57 H25         -0.4630     5.8870     2.0750 hc         1 0WY       0.041450
     58 H26          1.1120     6.4270     1.5210 hc         1 0WY       0.041450
     59 H27          6.0210     1.5320    -1.3730 hn         1 0WY       0.431300
     60 H28          7.3260     0.5030    -1.0330 hn         1 0WY       0.431300
     61 H29         -4.1300    -4.3070    -0.6110 hc         1 0WY       0.058200
     62 H30         -4.3570    -4.1490     1.1250 hc         1 0WY       0.058200
     63 H31         -7.6730    -0.7720     1.6380 ha         1 0WY       0.133000
     64 H32         -5.7220    -2.2220     2.0300 ha         1 0WY       0.130000
     65 H33         -8.5470    -0.4580    -0.6560 ha         1 0WY       0.133000
     66 H34         -5.4870    -3.0460    -2.1600 ha         1 0WY       0.130000
     67 H35         -7.4440    -1.6020    -2.5550 ha         1 0WY       0.133000
@<TRIPOS>BOND
     1     1     2 1   
     2     1    21 1   
     3     1    35 1   
     4     1    36 1   
     5     2     3 1   
     6     2    37 1   
     7     3     4 1   
     8     3    38 1   
     9     3    39 1   
    10     4     5 1   
    11     4    40 1   
    12     4    41 1   
    13     5     6 ar  
    14     5    14 ar  
    15     6     7 1   
    16     6    11 ar  
    17     7     8 2   
    18     8     9 1   
    19     8    27 1   
    20     9    10 1   
    21     9    42 1   
    22    10    11 1   
    23    10    20 2   
    24    11    12 ar  
    25    12    13 ar  
    26    12    43 1   
    27    13    14 ar  
    28    13    17 1   
    29    14    15 1   
    30    15    16 1   
    31    15    44 1   
    32    16    17 2   
    33    16    18 1   
    34    18    19 1   
    35    18    45 1   
    36    19    28 1   
    37    19    46 1   
    38    19    47 1   
    39    21    22 1   
    40    21    26 1   
    41    21    48 1   
    42    22    23 1   
    43    22    49 1   
    44    22    50 1   
    45    23    24 1   
    46    23    51 1   
    47    23    52 1   
    48    24    25 1   
    49    24    53 1   
    50    24    54 1   
    51    25    26 1   
    52    25    55 1   
    53    25    56 1   
    54    26    57 1   
    55    26    58 1   
    56    27    59 1   
    57    27    60 1   
    58    28    29 1   
    59    28    61 1   
    60    28    62 1   
    61    29    31 ar  
    62    29    33 ar  
    63    30    31 ar  
    64    30    32 ar  
    65    30    63 1   
    66    31    64 1   
    67    32    34 ar  
    68    32    65 1   
    69    33    34 ar  
    70    33    66 1   
    71    34    67 1   
@<TRIPOS>SUBSTRUCTURE
     1 0WY         1 TEMP              0 ****  ****    0 ROOT
