@<TRIPOS>MOLECULE
0WZ
   30    31     1     0     0
SMALL
No Charge or Current Charge


@<TRIPOS>ATOM
      1 C4          -4.6320    -1.4210     0.5820 cc         1 0WZ      -0.257000
      2 C3          -3.7940    -0.3620     0.7710 cd         1 0WZ      -0.149000
      3 N2          -2.8100    -0.5820    -0.1930 na         1 0WZ       0.247000
      4 C5          -4.0810    -2.2100    -0.4470 cc         1 0WZ       0.221900
      5 N1          -2.9470    -1.7440    -0.9320 nd         1 0WZ      -0.498800
      6 N            2.5950    -1.1880    -1.1950 n8         1 0WZ      -0.996200
      7 CA           3.0580    -0.1320    -0.2170 c3         1 0WZ       0.016500
      8 CB           1.9900     0.1180     0.8820 c3         1 0WZ      -0.019100
      9 CG           0.6570     0.6350     0.3430 ca         1 0WZ      -0.053300
     10 CD1          0.5450     1.9640    -0.1070 ca         1 0WZ      -0.072000
     11 CE1         -0.6820     2.4480    -0.5920 ca         1 0WZ      -0.206000
     12 CZ          -1.8080     1.6100    -0.6290 ca         1 0WZ       0.107100
     13 OH          -2.9860     2.1080    -1.1100 oh         1 0WZ      -0.540100
     14 CE2         -1.7090     0.2750    -0.1750 ca         1 0WZ      -0.042200
     15 CD2         -0.4740    -0.2040     0.3050 ca         1 0WZ      -0.038000
     16 C            4.4730    -0.3770     0.4490 c          1 0WZ       0.691000
     17 O1           4.6970    -1.4680     0.9580 o          1 0WZ      -0.731500
     18 H1          -5.5490    -1.6410     1.1200 ha         1 0WZ       0.131000
     19 H2          -3.8080     0.4800     1.4530 h4         1 0WZ       0.152000
     20 H3          -4.4790    -3.1330    -0.8470 h4         1 0WZ       0.027100
     21 H7           3.1510     0.8010    -0.7900 h1         1 0WZ       0.041700
     22 H8           1.8430    -0.8040     1.4580 hc         1 0WZ       0.053200
     23 H9           2.3920     0.8500     1.5940 hc         1 0WZ       0.053200
     24 H10          1.4110     2.6220    -0.0800 ha         1 0WZ       0.120000
     25 H11         -0.7490     3.4770    -0.9370 ha         1 0WZ       0.102000
     26 H12         -2.8410     3.0410    -1.3790 ho         1 0WZ       0.457000
     27 H13         -0.3950    -1.2330     0.6510 ha         1 0WZ       0.142000
     28 OXT          5.3260     0.4930     0.3340 o          1 0WZ      -0.731500
     29 H4           3.2930    -1.2800    -1.9430 hn         1 0WZ       0.384000
     30 H5           2.6360    -2.1010    -0.7260 hn         1 0WZ       0.384000
@<TRIPOS>BOND
     1     1     2 2   
     2     1     4 1   
     3     1    18 1   
     4     2     3 1   
     5     2    19 1   
     6     3     5 1   
     7     3    14 1   
     8     4     5 2   
     9     4    20 1   
    10     6     7 1   
    11     6    29 1   
    12     6    30 1   
    13     7     8 1   
    14     7    16 1   
    15     7    21 1   
    16     8     9 1   
    17     8    22 1   
    18     8    23 1   
    19     9    10 ar  
    20     9    15 ar  
    21    10    11 ar  
    22    10    24 1   
    23    11    12 ar  
    24    11    25 1   
    25    12    13 1   
    26    12    14 ar  
    27    13    26 1   
    28    14    15 ar  
    29    15    27 1   
    30    16    17 1   
    31    16    28 1   
@<TRIPOS>SUBSTRUCTURE
     1 0WZ         1 TEMP              0 ****  ****    0 ROOT
