@<TRIPOS>MOLECULE
0WZ
   30    31     1     0     0
SMALL
bcc


@<TRIPOS>ATOM
      1 C4          -4.5950    -1.5180     0.2960 cc         1 0WZ      -0.340300
      2 C3          -3.9040    -0.3520     0.5120 cd         1 0WZ      -0.116300
      3 N2          -2.6820    -0.5160    -0.0410 na         1 0WZ       0.196300
      4 C5          -3.6880    -2.3340    -0.4030 cc         1 0WZ       0.287200
      5 N1          -2.5380    -1.7210    -0.5990 nd         1 0WZ      -0.498800
      6 N            2.2280    -1.4080    -0.9120 n8         1 0WZ      -0.885800
      7 CA           2.9300    -0.2780    -0.3350 c3         1 0WZ       0.016500
      8 CB           2.1080     0.3200     0.8170 c3         1 0WZ      -0.019100
      9 CG           0.7520     0.8020     0.3930 ca         1 0WZ      -0.053300
     10 CD1          0.5560     2.1170    -0.0200 ca         1 0WZ      -0.090000
     11 CE1         -0.6870     2.5680    -0.4370 ca         1 0WZ      -0.224000
     12 CZ          -1.7800     1.7090    -0.4570 ca         1 0WZ       0.107100
     13 OH          -3.0040     2.0890    -0.8690 oh         1 0WZ      -0.501100
     14 CE2         -1.5980     0.3910    -0.0310 ca         1 0WZ      -0.042200
     15 CD2         -0.3470    -0.0470     0.3790 ca         1 0WZ      -0.056000
     16 C            4.3710    -0.5640     0.1660 c          1 0WZ       0.901600
     17 O1           4.7490    -1.7510     0.1920 o          1 0WZ      -0.836800
     18 H1          -5.6020    -1.7480     0.5990 ha         1 0WZ       0.149000
     19 H2          -4.1840     0.5530     1.0230 h4         1 0WZ       0.170000
     20 H3          -3.8370    -3.3370    -0.7710 h4         1 0WZ       0.027100
     21 H7           3.0070     0.4940    -1.1110 h1         1 0WZ       0.041700
     22 H8           2.0030    -0.4340     1.6050 hc         1 0WZ       0.053200
     23 H9           2.6720     1.1480     1.2480 hc         1 0WZ       0.053200
     24 H10          1.3880     2.8110    -0.0140 ha         1 0WZ       0.138000
     25 H11         -0.8080     3.5970    -0.7580 ha         1 0WZ       0.120000
     26 H12         -2.9880     3.0120    -1.1470 ho         1 0WZ       0.418000
     27 H13         -0.2400    -1.0750     0.7010 ha         1 0WZ       0.160000
     28 OXT          5.0350     0.4360     0.5120 o          1 0WZ      -0.836800
     29 H4           2.7680    -1.7560    -1.6960 hn         1 0WZ       0.328800
     30 H5           2.2390    -2.1690    -0.2410 hn         1 0WZ       0.328800
@<TRIPOS>BOND
     1     1     2 2   
     2     1     4 1   
     3     1    18 1   
     4     2     3 1   
     5     2    19 1   
     6     3     5 1   
     7     3    14 1   
     8     4     5 2   
     9     4    20 1   
    10     6     7 1   
    11     6    29 1   
    12     6    30 1   
    13     7     8 1   
    14     7    16 1   
    15     7    21 1   
    16     8     9 1   
    17     8    22 1   
    18     8    23 1   
    19     9    10 ar  
    20     9    15 ar  
    21    10    11 ar  
    22    10    24 1   
    23    11    12 ar  
    24    11    25 1   
    25    12    13 1   
    26    12    14 ar  
    27    13    26 1   
    28    14    15 ar  
    29    15    27 1   
    30    16    17 1   
    31    16    28 1   
@<TRIPOS>SUBSTRUCTURE
     1 0WZ         1 TEMP              0 ****  ****    0 ROOT
