@<TRIPOS>MOLECULE
0X2
   26    27     1     0     0
SMALL
abcg2


@<TRIPOS>ATOM
      1 C4           1.7630    -0.0250     0.1660 ca         1 0X2      -0.159600
      2 C5           2.4580     1.1470    -0.1020 ca         1 0X2       0.152500
      3 C6           3.7510     1.1250    -0.5970 ca         1 0X2      -0.103000
      4 C11         -4.2100     0.0130    -0.9920 c          1 0X2       0.699700
      5 C7           0.3830     0.0180     0.7580 c          1 0X2       0.636700
      6 C8          -1.9650     0.0330    -0.0220 c2         1 0X2       0.112400
      7 C9          -2.5660     0.1400     1.3310 c6         1 0X2      -0.172500
      8 C10         -4.0490     0.1890     1.2980 c2         1 0X2       0.487200
      9 C12         -2.7620    -0.0260    -1.1050 ce         1 0X2      -0.405200
     10 N1          -0.5950    -0.0010    -0.1890 ns         1 0X2      -0.406100
     11 N2          -4.8050     0.1350     0.2790 ne         1 0X2      -0.629100
     12 C3           2.3990    -1.2360    -0.0760 ca         1 0X2       0.152500
     13 O1           0.2070     0.0650     1.9530 o          1 0X2      -0.538100
     14 CL2          1.5450    -2.7040     0.2430 cl         1 0X2      -0.171000
     15 C2           3.6910    -1.2880    -0.5720 ca         1 0X2      -0.103000
     16 CL1          1.6780     2.6630     0.1840 cl         1 0X2      -0.171000
     17 C1           4.3590    -0.1000    -0.8290 ca         1 0X2      -0.074000
     18 H1           4.2740     2.0480    -0.8000 ha         1 0X2       0.141000
     19 H2          -2.2730    -0.6960     1.9730 hc         1 0X2       0.105700
     20 H3          -2.2120     1.0300     1.8610 hc         1 0X2       0.105700
     21 H4          -4.5270     0.2800     2.2710 h4         1 0X2       0.027800
     22 H5          -2.3460    -0.1070    -2.1030 ha         1 0X2       0.205000
     23 H6          -0.2810    -0.0530    -1.1490 hn         1 0X2       0.333500
     24 H7           4.1680    -2.2400    -0.7560 ha         1 0X2       0.141000
     25 H8           5.3680    -0.1300    -1.2160 ha         1 0X2       0.130000
     26 O2          -4.9350    -0.0530    -1.9650 o          1 0X2      -0.499100
@<TRIPOS>BOND
     1     1     2 ar  
     2     1     5 1   
     3     1    12 ar  
     4     2     3 ar  
     5     2    16 1   
     6     3    17 ar  
     7     3    18 1   
     8     4     9 1   
     9     4    11 1   
    10     4    26 2   
    11     5    10 1   
    12     5    13 2   
    13     6     7 1   
    14     6     9 2   
    15     6    10 1   
    16     7     8 1   
    17     7    19 1   
    18     7    20 1   
    19     8    11 2   
    20     8    21 1   
    21     9    22 1   
    22    10    23 1   
    23    12    14 1   
    24    12    15 ar  
    25    15    17 ar  
    26    15    24 1   
    27    17    25 1   
@<TRIPOS>SUBSTRUCTURE
     1 0X2         1 TEMP              0 ****  ****    0 ROOT
