@<TRIPOS>MOLECULE
0X2
   26    27     1     0     0
SMALL
No Charge or Current Charge


@<TRIPOS>ATOM
      1 C4           1.7930     0.1240     0.1610 ca         1 0X2      -0.159600
      2 C5           2.7190     1.1890     0.2720 ca         1 0X2       0.152500
      3 C6           4.0210     1.0590    -0.2410 ca         1 0X2      -0.103000
      4 C11         -4.2900    -0.4490    -0.9210 c          1 0X2       0.699700
      5 C7           0.4050     0.2760     0.7160 c          1 0X2       0.636700
      6 C8          -2.0120    -0.0440     0.0060 c2         1 0X2       0.112400
      7 C9          -2.6210     0.3810     1.3180 c6         1 0X2      -0.172500
      8 C10         -4.1310     0.3250     1.2950 c2         1 0X2       0.487200
      9 C12         -2.8100    -0.4210    -1.0010 ce         1 0X2      -0.405200
     10 N1          -0.6160    -0.0470    -0.1630 ns         1 0X2      -0.406100
     11 N2          -4.8600    -0.0500     0.2850 ne         1 0X2      -0.629100
     12 C3           2.2120    -1.0770    -0.4640 ca         1 0X2       0.152500
     13 O1           0.2120     0.6260     1.8720 o          1 0X2      -0.538100
     14 Cl2          1.1660    -2.4940    -0.5780 cl         1 0X2      -0.171000
     15 C2           3.5180    -1.1970    -0.9700 ca         1 0X2      -0.103000
     16 Cl1          2.2730     2.7390     0.9890 cl         1 0X2      -0.171000
     17 C1           4.4230    -0.1310    -0.8620 ca         1 0X2      -0.074000
     18 H1           4.7180     1.8900    -0.1590 ha         1 0X2       0.141000
     19 H2          -2.2650    -0.2690     2.1270 hc         1 0X2       0.105700
     20 H3          -2.3160     1.4060     1.5620 hc         1 0X2       0.105700
     21 H4          -4.6400     0.6250     2.2070 h4         1 0X2       0.027800
     22 H5          -2.4020    -0.7350    -1.9590 ha         1 0X2       0.205000
     23 H6          -0.2840    -0.3360    -1.0740 hn         1 0X2       0.333500
     24 H7           3.8310    -2.1260    -1.4400 ha         1 0X2       0.141000
     25 H8           5.4330    -0.2290    -1.2560 ha         1 0X2       0.130000
     26 O2          -4.9570    -0.8070    -1.8760 o          1 0X2      -0.499100
@<TRIPOS>BOND
     1     1     2 ar  
     2     1     5 1   
     3     1    12 ar  
     4     2     3 ar  
     5     2    16 1   
     6     3    17 ar  
     7     3    18 1   
     8     4     9 1   
     9     4    11 1   
    10     4    26 2   
    11     5    10 1   
    12     5    13 2   
    13     6     7 1   
    14     6     9 2   
    15     6    10 1   
    16     7     8 1   
    17     7    19 1   
    18     7    20 1   
    19     8    11 2   
    20     8    21 1   
    21     9    22 1   
    22    10    23 1   
    23    12    14 1   
    24    12    15 ar  
    25    15    17 ar  
    26    15    24 1   
    27    17    25 1   
@<TRIPOS>SUBSTRUCTURE
     1 0X2         1 TEMP              0 ****  ****    0 ROOT
