@<TRIPOS>MOLECULE
0X5
   36    38     1     0     0
SMALL
No Charge or Current Charge


@<TRIPOS>ATOM
      1 C4           3.1590    -0.2980    -0.2490 ca         1 0X5      -0.156600
      2 C5           3.8830     0.0540    -1.4130 ca         1 0X5       0.151500
      3 C6           5.2840     0.1650    -1.3760 ca         1 0X5      -0.105000
      4 C11         -0.4010     0.4180     0.9830 ca         1 0X5       0.045000
      5 C8           1.6600    -0.4140    -0.3020 c          1 0X5       0.635700
      6 C12         -0.7730     1.0950     2.1530 ca         1 0X5      -0.259000
      7 C13         -2.1320     1.2630     2.4590 ca         1 0X5       0.395900
      8 C3           3.8780    -0.5480     0.9480 ca         1 0X5       0.151500
      9 C1           5.9840    -0.0790    -0.1860 ca         1 0X5      -0.077000
     10 C2           5.2780    -0.4370     0.9720 ca         1 0X5      -0.105000
     11 Cl1          3.0730     0.4330    -2.9340 cl         1 0X5      -0.171500
     12 O9           1.1020    -1.1070    -1.1450 o          1 0X5      -0.542100
     13 N10          0.9810     0.2780     0.6920 ns         1 0X5      -0.133000
     14 N14         -3.1230     0.7950     1.6720 nb         1 0X5      -0.693000
     15 C15         -2.7680     0.1240     0.5610 ca         1 0X5       0.512900
     16 C16         -1.4380    -0.0650     0.1640 ca         1 0X5      -0.249000
     17 N17         -3.8200    -0.2880    -0.2660 ns         1 0X5      -0.326900
     18 C18         -5.0910    -0.7070     0.0490 c          1 0X5       0.642100
     19 O19         -5.5150    -0.8610     1.1870 o          1 0X5      -0.537100
     20 C20         -5.9360    -1.0130    -1.1660 cx         1 0X5      -0.254700
     21 C21         -7.3410    -0.4460    -1.2440 cx         1 0X5      -0.095900
     22 C22         -6.2560     0.1090    -2.1360 cx         1 0X5      -0.095900
     23 Cl2          3.0820    -1.0770     2.4320 cl         1 0X5      -0.171500
     24 H1           5.8260     0.4480    -2.2750 ha         1 0X5       0.139500
     25 H2          -0.0220     1.4960     2.8270 ha         1 0X5       0.123000
     26 H3          -2.4370     1.7940     3.3600 h4         1 0X5       0.023100
     27 H4           7.0690     0.0070    -0.1620 ha         1 0X5       0.128000
     28 H5           5.8200    -0.6390     1.8930 ha         1 0X5       0.139500
     29 H6           1.5860     0.7760     1.3320 hn         1 0X5       0.163000
     30 H7          -1.2430    -0.5800    -0.7690 ha         1 0X5       0.152000
     31 H8          -3.6030    -0.2780    -1.2520 hn         1 0X5       0.156000
     32 H9          -5.7830    -2.0010    -1.5900 hc         1 0X5       0.084700
     33 H10         -8.1120    -1.0600    -1.7060 hc         1 0X5       0.082450
     34 H11         -7.6920     0.1800    -0.4260 hc         1 0X5       0.082450
     35 H12         -5.8850     1.1080    -1.9150 hc         1 0X5       0.082450
     36 H13         -6.3000    -0.1320    -3.1960 hc         1 0X5       0.082450
@<TRIPOS>BOND
     1     1     2 ar  
     2     1     5 1   
     3     1     8 ar  
     4     2     3 ar  
     5     2    11 1   
     6     3     9 ar  
     7     3    24 1   
     8     4     6 ar  
     9     4    13 1   
    10     4    16 ar  
    11     5    12 2   
    12     5    13 1   
    13     6     7 ar  
    14     6    25 1   
    15     7    14 ar  
    16     7    26 1   
    17     8    10 ar  
    18     8    23 1   
    19     9    10 ar  
    20     9    27 1   
    21    10    28 1   
    22    13    29 1   
    23    14    15 ar  
    24    15    16 ar  
    25    15    17 1   
    26    16    30 1   
    27    17    18 1   
    28    17    31 1   
    29    18    19 2   
    30    18    20 1   
    31    20    21 1   
    32    20    22 1   
    33    20    32 1   
    34    21    22 1   
    35    21    33 1   
    36    21    34 1   
    37    22    35 1   
    38    22    36 1   
@<TRIPOS>SUBSTRUCTURE
     1 0X5         1 TEMP              0 ****  ****    0 ROOT
