@<TRIPOS>MOLECULE
0X5
   36    38     1     0     0
SMALL
abcg2


@<TRIPOS>ATOM
      1 C4           3.1230    -0.4000    -0.1570 ca         1 0X5      -0.156600
      2 C5           3.8840     0.4450    -0.9550 ca         1 0X5       0.151500
      3 C6           5.2670     0.4150    -0.9290 ca         1 0X5      -0.105000
      4 C11         -0.3100     0.6790     0.8620 ca         1 0X5       0.045000
      5 C8           1.6230    -0.3980    -0.2480 c          1 0X5       0.635700
      6 C12         -0.6450     1.5490     1.9060 ca         1 0X5      -0.259000
      7 C13         -1.9760     1.8220     2.1230 ca         1 0X5       0.395900
      8 C3           3.7890    -1.2900     0.6750 ca         1 0X5       0.151500
      9 C1           5.9030    -0.4860    -0.0880 ca         1 0X5      -0.077000
     10 C2           5.1720    -1.3430     0.7210 ca         1 0X5      -0.105000
     11 CL1          3.0740     1.5680    -1.9900 cl         1 0X5      -0.171500
     12 O9           1.0420    -1.0730    -1.0680 o          1 0X5      -0.542100
     13 N10          1.0400     0.4230     0.6590 ns         1 0X5      -0.133000
     14 N14         -2.9760     1.3160     1.4040 nb         1 0X5      -0.693000
     15 C15         -2.6510     0.4960     0.4220 ca         1 0X5       0.512900
     16 C16         -1.3350     0.1380     0.1020 ca         1 0X5      -0.249000
     17 N17         -3.6490    -0.0550    -0.3730 ns         1 0X5      -0.326900
     18 C18         -5.0100     0.0290    -0.2550 c          1 0X5       0.642100
     19 O19         -5.5880     0.6230     0.6320 o          1 0X5      -0.537100
     20 C20         -5.7330    -0.6940    -1.3350 cx         1 0X5      -0.254700
     21 C21         -7.0370    -1.3610    -0.9790 cx         1 0X5      -0.095900
     22 C22         -7.0510    -0.1240    -1.7960 cx         1 0X5      -0.095900
     23 CL2          2.8600    -2.3470     1.6800 cl         1 0X5      -0.171500
     24 H1           5.8410     1.0830    -1.5550 ha         1 0X5       0.139500
     25 H2           0.1160     1.9980     2.5310 ha         1 0X5       0.123000
     26 H3          -2.2590     2.4920     2.9270 h4         1 0X5       0.023100
     27 H4           6.9830    -0.5190    -0.0610 ha         1 0X5       0.128000
     28 H5           5.6720    -2.0420     1.3770 ha         1 0X5       0.139500
     29 H6           1.6670     0.9110     1.2830 hn         1 0X5       0.163000
     30 H7          -1.1460    -0.5390    -0.7140 ha         1 0X5       0.152000
     31 H8          -3.3120    -0.6100    -1.1450 hn         1 0X5       0.156000
     32 H9          -5.1290    -1.1850    -2.0890 hc         1 0X5       0.084700
     33 H10         -7.2460    -2.3060    -1.4620 hc         1 0X5       0.082450
     34 H11         -7.3610    -1.2970     0.0520 hc         1 0X5       0.082450
     35 H12         -7.3800     0.7940    -1.3270 hc         1 0X5       0.082450
     36 H13         -7.2690    -0.2000    -2.8520 hc         1 0X5       0.082450
@<TRIPOS>BOND
     1     1     2 ar  
     2     1     5 1   
     3     1     8 ar  
     4     2     3 ar  
     5     2    11 1   
     6     3     9 ar  
     7     3    24 1   
     8     4     6 ar  
     9     4    13 1   
    10     4    16 ar  
    11     5    12 2   
    12     5    13 1   
    13     6     7 ar  
    14     6    25 1   
    15     7    14 ar  
    16     7    26 1   
    17     8    10 ar  
    18     8    23 1   
    19     9    10 ar  
    20     9    27 1   
    21    10    28 1   
    22    13    29 1   
    23    14    15 ar  
    24    15    16 ar  
    25    15    17 1   
    26    16    30 1   
    27    17    18 1   
    28    17    31 1   
    29    18    19 2   
    30    18    20 1   
    31    20    21 1   
    32    20    22 1   
    33    20    32 1   
    34    21    22 1   
    35    21    33 1   
    36    21    34 1   
    37    22    35 1   
    38    22    36 1   
@<TRIPOS>SUBSTRUCTURE
     1 0X5         1 TEMP              0 ****  ****    0 ROOT
