@<TRIPOS>MOLECULE
0X6
   37    39     1     0     0
SMALL
No Charge or Current Charge


@<TRIPOS>ATOM
      1 C4           3.4070     0.2190     0.4890 ca         1 0X6       0.515900
      2 C14         -4.0590    -1.6030    -0.4610 ca         1 0X6      -0.073000
      3 C5           2.0730    -0.0500     0.1560 ca         1 0X6      -0.285000
      4 C6           1.0520     0.7660     0.6640 ca         1 0X6       0.046000
      5 C11         -3.7210     1.1830    -0.4800 ca         1 0X6       0.144000
      6 C8          -1.5030     1.0040     0.7240 c          1 0X6       0.633700
      7 C10         -2.7230     0.3710     0.1090 ca         1 0X6      -0.140600
      8 C12         -4.8650     0.6060    -1.0570 ca         1 0X6      -0.073000
      9 C13         -5.0390    -0.7880    -1.0510 ca         1 0X6       0.023000
     10 N3           3.7790     1.2660     1.2460 nb         1 0X6      -0.689000
     11 C1           1.4410     1.8460     1.4780 ca         1 0X6      -0.221000
     12 C2           2.8030     2.0590     1.7380 ca         1 0X6       0.392900
     13 N7          -0.2910     0.4610     0.3200 ns         1 0X6      -0.135000
     14 O9          -1.5980     1.9050     1.5490 o          1 0X6      -0.529100
     15 C15         -2.9100    -1.0350     0.1150 ca         1 0X6       0.144000
     16 Cl1         -1.7720    -2.1330     0.9000 cl         1 0X6      -0.154000
     17 C17         -6.2120    -1.3750    -1.6410 cg         1 0X6       0.310000
     18 N18         -7.1590    -1.8580    -2.1230 n1         1 0X6      -0.419000
     19 N20          4.4410    -0.5480    -0.0570 ns         1 0X6      -0.327900
     20 C21          5.6980    -0.8320     0.4250 c          1 0X6       0.643100
     21 O22          6.1230    -0.4840     1.5180 o          1 0X6      -0.531100
     22 C23          6.5240    -1.6710    -0.5230 cx         1 0X6      -0.256700
     23 C24          6.8820    -1.1010    -1.8830 cx         1 0X6      -0.094900
     24 C25          7.9490    -1.2490    -0.8240 cx         1 0X6      -0.094900
     25 H1          -4.1880    -2.6830    -0.4390 ha         1 0X6       0.151000
     26 H2           1.8390    -0.8930    -0.4880 ha         1 0X6       0.116000
     27 H3          -5.6140     1.2480    -1.5150 ha         1 0X6       0.151000
     28 H4           0.7230     2.5370     1.9070 ha         1 0X6       0.157000
     29 H5           3.1250     2.8960     2.3560 h4         1 0X6       0.027100
     30 H6          -0.3790    -0.2950    -0.3450 hn         1 0X6       0.159000
     31 H7           4.2200    -0.9660    -0.9500 hn         1 0X6       0.150000
     32 H8           6.3300    -2.7390    -0.4720 hc         1 0X6       0.082700
     33 H9           6.9100    -1.7840    -2.7290 hc         1 0X6       0.083700
     34 H10          6.5510    -0.0930    -2.1260 hc         1 0X6       0.083700
     35 H11          8.3280    -0.3410    -0.3590 hc         1 0X6       0.083700
     36 H12          8.6930    -2.0310    -0.9610 hc         1 0X6       0.083700
     37 Cl2         -3.5530     2.9370    -0.5810 cl         1 0X6      -0.154000
@<TRIPOS>BOND
     1     1     3 ar  
     2     1    10 ar  
     3     1    19 1   
     4     2     9 ar  
     5     2    15 ar  
     6     2    25 1   
     7     3     4 ar  
     8     3    26 1   
     9     4    11 ar  
    10     4    13 1   
    11     5     7 ar  
    12     5     8 ar  
    13     5    37 1   
    14     6     7 1   
    15     6    13 1   
    16     6    14 2   
    17     7    15 ar  
    18     8     9 ar  
    19     8    27 1   
    20     9    17 1   
    21    10    12 ar  
    22    11    12 ar  
    23    11    28 1   
    24    12    29 1   
    25    13    30 1   
    26    15    16 1   
    27    17    18 3   
    28    19    20 1   
    29    19    31 1   
    30    20    21 2   
    31    20    22 1   
    32    22    23 1   
    33    22    24 1   
    34    22    32 1   
    35    23    24 1   
    36    23    33 1   
    37    23    34 1   
    38    24    35 1   
    39    24    36 1   
@<TRIPOS>SUBSTRUCTURE
     1 0X6         1 TEMP              0 ****  ****    0 ROOT
