@<TRIPOS>MOLECULE
0X6
   37    39     1     0     0
SMALL
abcg2


@<TRIPOS>ATOM
      1 C4           3.3130     0.4010     0.3060 ca         1 0X6       0.515900
      2 C14         -4.3430    -1.5270     0.1250 ca         1 0X6      -0.073000
      3 C5           1.9880     0.1050    -0.0140 ca         1 0X6      -0.285000
      4 C6           0.9690     0.7810     0.6400 ca         1 0X6       0.046000
      5 C11         -3.3860     0.8980    -0.8340 ca         1 0X6       0.144000
      6 C8          -1.4970     0.8830     0.8280 c          1 0X6       0.633700
      7 C10         -2.7060     0.2520     0.1900 ca         1 0X6      -0.140600
      8 C12         -4.5270     0.3560    -1.3960 ca         1 0X6      -0.073000
      9 C13         -4.9960    -0.8570    -0.9040 ca         1 0X6       0.023000
     10 N3           3.6500     1.3080     1.2080 nb         1 0X6      -0.689000
     11 C1           1.3130     1.7380     1.5970 ca         1 0X6      -0.221000
     12 C2           2.6610     1.9440     1.8240 ca         1 0X6       0.392900
     13 N7          -0.3360     0.4490     0.2850 ns         1 0X6      -0.135000
     14 O9          -1.6140     1.6850     1.7250 o          1 0X6      -0.529100
     15 C15         -3.2020    -0.9580     0.6590 ca         1 0X6       0.144000
     16 CL1         -2.3700    -1.7690     1.9310 cl         1 0X6      -0.154000
     17 C17         -6.1780    -1.4290    -1.4680 cg         1 0X6       0.310000
     18 N18         -7.1300    -1.8880    -1.9230 n1         1 0X6      -0.419000
     19 N20          4.2990    -0.3010    -0.3740 ns         1 0X6      -0.327900
     20 C21          5.6560    -0.3080    -0.1860 c          1 0X6       0.643100
     21 O22          6.2390     0.3560     0.6460 o          1 0X6      -0.531100
     22 C23          6.3650    -1.2290    -1.1150 cx         1 0X6      -0.256700
     23 C24          7.7350    -0.8230    -1.5960 cx         1 0X6      -0.094900
     24 C25          7.6040    -1.9180    -0.6050 cx         1 0X6      -0.094900
     25 H1          -4.7170    -2.4710     0.4970 ha         1 0X6       0.151000
     26 H2           1.7610    -0.6490    -0.7590 ha         1 0X6       0.116000
     27 H3          -5.0460     0.8670    -2.1950 ha         1 0X6       0.151000
     28 H4           0.5850     2.3080     2.1470 ha         1 0X6       0.157000
     29 H5           2.9600     2.6830     2.5590 h4         1 0X6       0.027100
     30 H6          -0.4190    -0.2320    -0.4560 hn         1 0X6       0.159000
     31 H7           3.9540    -0.9220    -1.0900 hn         1 0X6       0.150000
     32 H8           5.7540    -1.7870    -1.8160 hc         1 0X6       0.082700
     33 H9           7.9820    -1.0750    -2.6180 hc         1 0X6       0.083700
     34 H10          8.1160     0.1320    -1.2570 hc         1 0X6       0.083700
     35 H11          7.8930    -1.7160     0.4190 hc         1 0X6       0.083700
     36 H12          7.7620    -2.9370    -0.9310 hc         1 0X6       0.083700
     37 CL2         -2.7880     2.4020    -1.4220 cl         1 0X6      -0.154000
@<TRIPOS>BOND
     1     1     3 ar  
     2     1    10 ar  
     3     1    19 1   
     4     2     9 ar  
     5     2    15 ar  
     6     2    25 1   
     7     3     4 ar  
     8     3    26 1   
     9     4    11 ar  
    10     4    13 1   
    11     5     7 ar  
    12     5     8 ar  
    13     5    37 1   
    14     6     7 1   
    15     6    13 1   
    16     6    14 2   
    17     7    15 ar  
    18     8     9 ar  
    19     8    27 1   
    20     9    17 1   
    21    10    12 ar  
    22    11    12 ar  
    23    11    28 1   
    24    12    29 1   
    25    13    30 1   
    26    15    16 1   
    27    17    18 3   
    28    19    20 1   
    29    19    31 1   
    30    20    21 2   
    31    20    22 1   
    32    22    23 1   
    33    22    24 1   
    34    22    32 1   
    35    23    24 1   
    36    23    33 1   
    37    23    34 1   
    38    24    35 1   
    39    24    36 1   
@<TRIPOS>SUBSTRUCTURE
     1 0X6         1 TEMP              0 ****  ****    0 ROOT
