@<TRIPOS>MOLECULE
0X7
   32    33     1     0     0
SMALL
bcc


@<TRIPOS>ATOM
      1 N4           4.1130    34.8230    29.0250 nb         1 0X7      -0.732000
      2 C6           6.2760    35.2270    28.1400 ca         1 0X7       0.201900
      3 C7           4.2350    38.0110    27.0210 c          1 0X7       0.598600
      4 N9           5.2260    38.6330    26.3770 nt         1 0X7      -0.646000
      5 C14          0.5450    31.8650    28.7300 ca         1 0X7      -0.132000
      6 C15          0.2880    31.8790    27.3660 ca         1 0X7      -0.123000
      7 C18          1.2240    32.9490    30.8840 c3         1 0X7      -0.050800
      8 C11          1.4860    35.4980    29.3700 c3         1 0X7       0.282100
      9 C12          1.0860    34.2070    28.6870 ca         1 0X7      -0.096300
     10 C13          0.9440    33.0150    29.4090 ca         1 0X7      -0.054300
     11 C16          0.4300    33.0620    26.6560 ca         1 0X7      -0.133000
     12 C17          0.8250    34.2140    27.3200 ca         1 0X7      -0.116000
     13 C2           4.6210    36.7350    27.6920 ca         1 0X7       0.149500
     14 C3           3.6960    35.9540    28.4430 ca         1 0X7       0.630900
     15 C5           5.3740    34.4710    28.8750 ca         1 0X7       0.373900
     16 N1           5.8760    36.3490    27.5650 nb         1 0X7      -0.611000
     17 N10          2.4120    36.2990    28.6100 nu         1 0X7      -0.858900
     18 O8           3.0850    38.4450    27.0680 o          1 0X7      -0.651100
     19 H1           7.3090    34.9280    28.0210 h4         1 0X7       0.031100
     20 H2           5.0530    39.5000    25.8960 hn         1 0X7       0.328500
     21 H3           6.1530    38.2430    26.3620 hn         1 0X7       0.328500
     22 H4           0.4390    30.9390    29.2830 ha         1 0X7       0.127000
     23 H5          -0.0180    30.9700    26.8630 ha         1 0X7       0.129000
     24 H6           0.5730    33.6110    31.4570 hc         1 0X7       0.043367
     25 H7           1.0790    31.9380    31.2610 hc         1 0X7       0.043367
     26 H8           2.2530    33.2400    31.1050 hc         1 0X7       0.043367
     27 H9           1.9000    35.2960    30.3580 h1         1 0X7       0.059700
     28 H10          0.5990    36.1140    29.5290 h1         1 0X7       0.059700
     29 H11          0.2330    33.0910    25.5920 ha         1 0X7       0.130000
     30 H12          0.9380    35.1360    26.7610 ha         1 0X7       0.132000
     31 H13          5.6890    33.5510    29.3560 h4         1 0X7       0.025100
     32 H14          2.1050    37.1470    28.1580 hn         1 0X7       0.485800
@<TRIPOS>BOND
     1     1    14 ar  
     2     1    15 ar  
     3     2    15 ar  
     4     2    16 ar  
     5     2    19 1   
     6     3     4 1   
     7     3    13 1   
     8     3    18 2   
     9     4    20 1   
    10     4    21 1   
    11     5     6 ar  
    12     5    10 ar  
    13     5    22 1   
    14     6    11 ar  
    15     6    23 1   
    16     7    10 1   
    17     7    24 1   
    18     7    25 1   
    19     7    26 1   
    20     8     9 1   
    21     8    17 1   
    22     8    27 1   
    23     8    28 1   
    24     9    10 ar  
    25     9    12 ar  
    26    11    12 ar  
    27    11    29 1   
    28    12    30 1   
    29    13    14 ar  
    30    13    16 ar  
    31    14    17 1   
    32    15    31 1   
    33    17    32 1   
@<TRIPOS>SUBSTRUCTURE
     1 0X7         1 TEMP              0 ****  ****    0 ROOT
