@<TRIPOS>MOLECULE
0X7
   32    33     1     0     0
SMALL
No Charge or Current Charge


@<TRIPOS>ATOM
      1 N4           4.2470    35.3080    29.9640 nb         1 0X7      -0.732000
      2 C6           6.3230    35.2210    28.6870 ca         1 0X7       0.201900
      3 C7           3.9450    37.2990    26.7200 c          1 0X7       0.531600
      4 N9           4.7220    37.5810    25.6470 nt         1 0X7      -0.579000
      5 C14          0.8650    32.0960    28.2080 ca         1 0X7      -0.114000
      6 C15          0.4200    32.4200    26.9170 ca         1 0X7      -0.105000
      7 C18          1.6460    32.6980    30.5330 c3         1 0X7      -0.050800
      8 C11          1.3770    35.6270    29.7130 c3         1 0X7       0.282100
      9 C12          1.0490    34.4710    28.7590 ca         1 0X7      -0.096300
     10 C13          1.1800    33.1080    29.1380 ca         1 0X7      -0.054300
     11 C16          0.2810    33.7630    26.5430 ca         1 0X7      -0.115000
     12 C17          0.5910    34.7810    27.4590 ca         1 0X7      -0.098000
     13 C2           4.5510    36.4250    27.8120 ca         1 0X7       0.149500
     14 C3           3.7650    36.0690    28.9600 ca         1 0X7       0.630900
     15 C5           5.5310    34.8850    29.8170 ca         1 0X7       0.373900
     16 N1           5.8520    35.9920    27.6710 nb         1 0X7      -0.611000
     17 N10          2.4520    36.4670    29.1620 nu         1 0X7      -0.914100
     18 O8           2.8120    37.7600    26.7600 o          1 0X7      -0.651100
     19 H1           7.3490    34.8650    28.6000 h4         1 0X7       0.031100
     20 H2           4.3590    38.1590    24.9040 hn         1 0X7       0.328500
     21 H3           5.6600    37.2080    25.6070 hn         1 0X7       0.328500
     22 H4           0.9620    31.0490    28.4860 ha         1 0X7       0.109000
     23 H5           0.1800    31.6300    26.2090 ha         1 0X7       0.111000
     24 H6           0.9760    33.0940    31.3050 hc         1 0X7       0.043367
     25 H7           1.6680    31.6080    30.6520 hc         1 0X7       0.043367
     26 H8           2.6570    33.0660    30.7380 hc         1 0X7       0.043367
     27 H9           1.6540    35.2620    30.7100 h1         1 0X7       0.059700
     28 H10          0.4690    36.2320    29.8430 h1         1 0X7       0.059700
     29 H11         -0.0680    34.0170    25.5440 ha         1 0X7       0.112000
     30 H12          0.4750    35.8190    27.1540 ha         1 0X7       0.114000
     31 H13          5.9380    34.2670    30.6160 h4         1 0X7       0.025100
     32 H14          2.1610    37.0940    28.4020 hn         1 0X7       0.541000
@<TRIPOS>BOND
     1     1    14 ar  
     2     1    15 ar  
     3     2    15 ar  
     4     2    16 ar  
     5     2    19 1   
     6     3     4 1   
     7     3    13 1   
     8     3    18 2   
     9     4    20 1   
    10     4    21 1   
    11     5     6 ar  
    12     5    10 ar  
    13     5    22 1   
    14     6    11 ar  
    15     6    23 1   
    16     7    10 1   
    17     7    24 1   
    18     7    25 1   
    19     7    26 1   
    20     8     9 1   
    21     8    17 1   
    22     8    27 1   
    23     8    28 1   
    24     9    10 ar  
    25     9    12 ar  
    26    11    12 ar  
    27    11    29 1   
    28    12    30 1   
    29    13    14 ar  
    30    13    16 ar  
    31    14    17 1   
    32    15    31 1   
    33    17    32 1   
@<TRIPOS>SUBSTRUCTURE
     1 0X7         1 TEMP              0 ****  ****    0 ROOT
