@<TRIPOS>MOLECULE
0X8
   63    66     1     0     0
SMALL
No Charge or Current Charge


@<TRIPOS>ATOM
      1 C1          -2.2050    -7.6510   -52.2690 ca         1 0X8      -0.048900
      2 C2          -1.9640    -8.4670   -53.3870 ca         1 0X8       0.179100
      3 C3          -2.4820    -8.1280   -54.6340 ca         1 0X8      -0.197000
      4 C8          -4.1710    -5.4130   -56.3530 ca         1 0X8       0.207100
      5 C4          -3.2570    -6.9730   -54.7740 ca         1 0X8       0.198100
      6 C5          -3.5590    -6.1570   -53.6660 ca         1 0X8      -0.249600
      7 C6          -3.0240    -6.4940   -52.3830 ca         1 0X8       0.051700
      8 O36         -6.7750     1.4320   -51.7370 o          1 0X8      -0.724000
      9 C34         -6.3890     0.3540   -51.3090 c          1 0X8       0.701200
     10 O35         -6.0520     0.1740   -50.1490 o          1 0X8      -0.724000
     11 C33         -6.3350    -0.8190   -52.2400 ce         1 0X8      -0.217200
     12 C32         -6.6870    -0.8000   -53.5520 c2         1 0X8      -0.290200
     13 C31         -6.6460    -1.9740   -54.5040 c3         1 0X8       0.217800
     14 C14         -4.9630    -3.2100   -55.7210 ca         1 0X8       0.272100
     15 C9          -4.5310    -4.5030   -55.3510 ca         1 0X8      -0.294600
     16 C10         -4.4450    -4.9630   -53.9290 c          1 0X8       0.608300
     17 O19         -5.1450    -4.4660   -53.0590 o          1 0X8      -0.495100
     18 C25         -3.2830    -5.6280   -51.1400 c3         1 0X8      -0.008900
     19 C26         -2.6160    -4.2630   -51.2230 c2         1 0X8      -0.197200
     20 C27         -2.8920    -3.1810   -50.4720 c2         1 0X8      -0.127400
     21 C29         -3.9200    -3.1330   -49.3520 c3         1 0X8      -0.052900
     22 C28         -2.1940    -1.8490   -50.6750 c3         1 0X8      -0.052900
     23 O22         -1.6240    -8.0100   -51.0690 os         1 0X8      -0.368100
     24 C23         -0.4020    -7.3670   -50.6580 c3         1 0X8       0.133900
     25 C13         -5.0340    -2.8490   -57.0850 ca         1 0X8      -0.227800
     26 C18         -5.3860    -1.4780   -57.5380 ce         1 0X8      -0.090200
     27 C17         -5.6280    -1.2480   -58.8420 c2         1 0X8      -0.293200
     28 C16         -5.6010    -2.3800   -59.8560 c6         1 0X8       0.234200
     29 C20         -5.0330    -1.8940   -61.2120 c3         1 0X8      -0.096100
     30 C21         -7.0310    -2.9500   -60.0500 c3         1 0X8      -0.096100
     31 O15         -4.7590    -3.4690   -59.4120 os         1 0X8      -0.352100
     32 C12         -4.7080    -3.7960   -58.0710 ca         1 0X8       0.226100
     33 C11         -4.2660    -5.0690   -57.7040 ca         1 0X8      -0.221000
     34 O7          -3.7160    -6.6630   -56.0290 os         1 0X8      -0.223200
     35 O24         -1.2050    -9.5900   -53.2510 oh         1 0X8      -0.530100
     36 H1          -2.2750    -8.7510   -55.4990 ha         1 0X8       0.145000
     37 H3          -5.9790    -1.7430   -51.7890 ha         1 0X8       0.144000
     38 H4          -7.0440     0.1220   -54.0150 ha         1 0X8       0.189000
     39 H5          -7.1750    -1.7160   -55.4310 h1         1 0X8       0.023700
     40 H6          -7.1510    -2.8400   -54.0570 h1         1 0X8       0.023700
     41 H7          -4.3620    -5.5300   -50.9780 hc         1 0X8       0.078700
     42 H8          -2.9390    -6.1290   -50.2290 hc         1 0X8       0.078700
     43 H9          -1.8560    -4.1960   -52.0040 ha         1 0X8       0.183000
     44 H10         -4.7210    -2.4220   -49.5850 hc         1 0X8       0.036367
     45 H11         -4.3900    -4.1040   -49.1640 hc         1 0X8       0.036367
     46 H12         -3.4570    -2.8140   -48.4100 hc         1 0X8       0.036367
     47 H13         -1.6610    -1.5390   -49.7680 hc         1 0X8       0.036367
     48 H14         -1.4600    -1.8930   -51.4890 hc         1 0X8       0.036367
     49 H15         -2.9150    -1.0610   -50.9260 hc         1 0X8       0.036367
     50 H16         -0.0730    -7.7580   -49.6870 h1         1 0X8       0.040367
     51 H17          0.3960    -7.5470   -51.3900 h1         1 0X8       0.040367
     52 H18         -0.5410    -6.2830   -50.5620 h1         1 0X8       0.040367
     53 H19         -5.4170    -0.6780   -56.7930 ha         1 0X8       0.216000
     54 H20         -5.8790    -0.2520   -59.2080 ha         1 0X8       0.188000
     55 H21         -4.0190    -1.4930   -61.0920 hc         1 0X8       0.045700
     56 H22         -4.9850    -2.7120   -61.9410 hc         1 0X8       0.045700
     57 H23         -5.6550    -1.1010   -61.6430 hc         1 0X8       0.045700
     58 H24         -7.4470    -3.3080   -59.1010 hc         1 0X8       0.045700
     59 H25         -7.7120    -2.1840   -60.4400 hc         1 0X8       0.045700
     60 H26         -7.0330    -3.7890   -60.7550 hc         1 0X8       0.045700
     61 H27         -3.9890    -5.7870   -58.4700 ha         1 0X8       0.141000
     62 H28         -0.9840    -9.6520   -52.2960 ho         1 0X8       0.483000
     63 O30         -5.2690    -2.2730   -54.7660 os         1 0X8      -0.356100
@<TRIPOS>BOND
     1     1     2 ar  
     2     1     7 ar  
     3     1    23 1   
     4     2     3 ar  
     5     2    35 1   
     6     3     5 ar  
     7     3    36 1   
     8     4    15 ar  
     9     4    33 ar  
    10     4    34 1   
    11     5     6 ar  
    12     5    34 1   
    13     6     7 ar  
    14     6    16 1   
    15     7    18 1   
    16     8     9 1   
    17     9    10 1   
    18     9    11 1   
    19    11    12 2   
    20    11    37 1   
    21    12    13 1   
    22    12    38 1   
    23    13    39 1   
    24    13    40 1   
    25    13    63 1   
    26    14    15 ar  
    27    14    25 ar  
    28    14    63 1   
    29    15    16 1   
    30    16    17 2   
    31    18    19 1   
    32    18    41 1   
    33    18    42 1   
    34    19    20 2   
    35    19    43 1   
    36    20    21 1   
    37    20    22 1   
    38    21    44 1   
    39    21    45 1   
    40    21    46 1   
    41    22    47 1   
    42    22    48 1   
    43    22    49 1   
    44    23    24 1   
    45    24    50 1   
    46    24    51 1   
    47    24    52 1   
    48    25    26 1   
    49    25    32 ar  
    50    26    27 2   
    51    26    53 1   
    52    27    28 1   
    53    27    54 1   
    54    28    29 1   
    55    28    30 1   
    56    28    31 1   
    57    29    55 1   
    58    29    56 1   
    59    29    57 1   
    60    30    58 1   
    61    30    59 1   
    62    30    60 1   
    63    31    32 1   
    64    32    33 ar  
    65    33    61 1   
    66    35    62 1   
@<TRIPOS>SUBSTRUCTURE
     1 0X8         1 TEMP              0 ****  ****    0 ROOT
