@<TRIPOS>MOLECULE
0X8
   63    66     1     0     0
SMALL
abcg2


@<TRIPOS>ATOM
      1 C1          -2.4550    -7.3220   -52.2090 ca         1 0X8      -0.048900
      2 C2          -2.1230    -8.1460   -53.3010 ca         1 0X8       0.179100
      3 C3          -2.4810    -7.7730   -54.5780 ca         1 0X8      -0.197000
      4 C8          -4.0120    -5.1160   -56.3760 ca         1 0X8       0.207100
      5 C4          -3.1750    -6.5860   -54.7490 ca         1 0X8       0.198100
      6 C5          -3.5650    -5.7670   -53.6860 ca         1 0X8      -0.249600
      7 C6          -3.1850    -6.1580   -52.3730 ca         1 0X8       0.051700
      8 O36         -7.5490     1.7120   -52.5630 o          1 0X8      -0.724000
      9 C34         -7.9700     0.6410   -52.0830 c          1 0X8       0.701200
     10 O35         -8.6280     0.4890   -51.0340 o          1 0X8      -0.724000
     11 C33         -7.6600    -0.6380   -52.8390 ce         1 0X8      -0.217200
     12 C32         -7.0160    -0.6790   -54.0010 c2         1 0X8      -0.290200
     13 C31         -6.7620    -1.9320   -54.7620 c3         1 0X8       0.217800
     14 C14         -4.9800    -2.9870   -55.8770 ca         1 0X8       0.272100
     15 C9          -4.4650    -4.2160   -55.4090 ca         1 0X8      -0.294600
     16 C10         -4.3780    -4.5730   -53.9850 c          1 0X8       0.608300
     17 O19         -4.9480    -3.9280   -53.1210 o          1 0X8      -0.495100
     18 C25         -3.5170    -5.3480   -51.1410 c3         1 0X8      -0.008900
     19 C26         -2.6470    -4.1270   -51.0210 c2         1 0X8      -0.197200
     20 C27         -2.0490    -3.6640   -49.9210 c2         1 0X8      -0.127400
     21 C29         -2.1380    -4.2920   -48.5620 c3         1 0X8      -0.052900
     22 C28         -1.2130    -2.4180   -49.9710 c3         1 0X8      -0.052900
     23 O22         -2.0450    -7.7640   -50.9830 os         1 0X8      -0.368100
     24 C23         -0.7930    -7.2300   -50.5500 c3         1 0X8       0.133900
     25 C13         -5.0630    -2.7070   -57.2340 ca         1 0X8      -0.227800
     26 C18         -5.4730    -1.4150   -57.7630 ce         1 0X8      -0.090200
     27 C17         -5.7190    -1.2890   -59.0650 c2         1 0X8      -0.293200
     28 C16         -5.6460    -2.4760   -59.9830 c6         1 0X8       0.234200
     29 C20         -5.1240    -2.0800   -61.3540 c3         1 0X8      -0.096100
     30 C21         -7.0130    -3.1460   -60.0870 c3         1 0X8      -0.096100
     31 O15         -4.6940    -3.4370   -59.4720 os         1 0X8      -0.352100
     32 C12         -4.6480    -3.6800   -58.1610 ca         1 0X8       0.226100
     33 C11         -4.1170    -4.8830   -57.7390 ca         1 0X8      -0.221000
     34 O7          -3.4670    -6.2950   -56.0340 os         1 0X8      -0.223200
     35 O24         -1.4580    -9.2900   -53.1240 oh         1 0X8      -0.530100
     36 H1          -2.2220    -8.3870   -55.4310 ha         1 0X8       0.145000
     37 H3          -7.9980    -1.5680   -52.3880 ha         1 0X8       0.144000
     38 H4          -6.6740     0.2450   -54.4590 ha         1 0X8       0.189000
     39 H5          -7.3000    -1.9060   -55.7180 h1         1 0X8       0.023700
     40 H6          -7.1050    -2.8110   -54.2100 h1         1 0X8       0.023700
     41 H7          -4.5630    -5.0500   -51.1780 hc         1 0X8       0.078700
     42 H8          -3.4100    -5.9850   -50.2650 hc         1 0X8       0.078700
     43 H9          -2.5070    -3.5640   -51.9390 ha         1 0X8       0.183000
     44 H10         -2.6070    -3.6010   -47.8560 hc         1 0X8       0.036367
     45 H11         -2.7080    -5.2180   -48.5410 hc         1 0X8       0.036367
     46 H12         -1.1400    -4.5020   -48.1690 hc         1 0X8       0.036367
     47 H13         -0.1870    -2.6240   -49.6560 hc         1 0X8       0.036367
     48 H14         -1.1780    -1.9850   -50.9710 hc         1 0X8       0.036367
     49 H15         -1.6000    -1.6590   -49.2870 hc         1 0X8       0.036367
     50 H16         -0.5540    -7.7100   -49.6040 h1         1 0X8       0.040367
     51 H17          0.0040    -7.4440   -51.2670 h1         1 0X8       0.040367
     52 H18         -0.8510    -6.1510   -50.4010 h1         1 0X8       0.040367
     53 H19         -5.5460    -0.5660   -57.0970 ha         1 0X8       0.216000
     54 H20         -6.0130    -0.3390   -59.4940 ha         1 0X8       0.188000
     55 H21         -4.1450    -1.6060   -61.2840 hc         1 0X8       0.045700
     56 H22         -5.0480    -2.9490   -62.0080 hc         1 0X8       0.045700
     57 H23         -5.8110    -1.3720   -61.8160 hc         1 0X8       0.045700
     58 H24         -7.3730    -3.4700   -59.1090 hc         1 0X8       0.045700
     59 H25         -7.7400    -2.4410   -60.4920 hc         1 0X8       0.045700
     60 H26         -6.9750    -4.0110   -60.7510 hc         1 0X8       0.045700
     61 H27         -3.7720    -5.6210   -58.4520 ha         1 0X8       0.141000
     62 H28         -1.3700    -9.4750   -52.1790 ho         1 0X8       0.483000
     63 O30         -5.3540    -2.0230   -55.0100 os         1 0X8      -0.356100
@<TRIPOS>BOND
     1     1     2 ar  
     2     1     7 ar  
     3     1    23 1   
     4     2     3 ar  
     5     2    35 1   
     6     3     5 ar  
     7     3    36 1   
     8     4    15 ar  
     9     4    33 ar  
    10     4    34 1   
    11     5     6 ar  
    12     5    34 1   
    13     6     7 ar  
    14     6    16 1   
    15     7    18 1   
    16     8     9 1   
    17     9    10 1   
    18     9    11 1   
    19    11    12 2   
    20    11    37 1   
    21    12    13 1   
    22    12    38 1   
    23    13    39 1   
    24    13    40 1   
    25    13    63 1   
    26    14    15 ar  
    27    14    25 ar  
    28    14    63 1   
    29    15    16 1   
    30    16    17 2   
    31    18    19 1   
    32    18    41 1   
    33    18    42 1   
    34    19    20 2   
    35    19    43 1   
    36    20    21 1   
    37    20    22 1   
    38    21    44 1   
    39    21    45 1   
    40    21    46 1   
    41    22    47 1   
    42    22    48 1   
    43    22    49 1   
    44    23    24 1   
    45    24    50 1   
    46    24    51 1   
    47    24    52 1   
    48    25    26 1   
    49    25    32 ar  
    50    26    27 2   
    51    26    53 1   
    52    27    28 1   
    53    27    54 1   
    54    28    29 1   
    55    28    30 1   
    56    28    31 1   
    57    29    55 1   
    58    29    56 1   
    59    29    57 1   
    60    30    58 1   
    61    30    59 1   
    62    30    60 1   
    63    31    32 1   
    64    32    33 ar  
    65    33    61 1   
    66    35    62 1   
@<TRIPOS>SUBSTRUCTURE
     1 0X8         1 TEMP              0 ****  ****    0 ROOT
