@<TRIPOS>MOLECULE
0X9
   30    29     1     0     0
SMALL
No Charge or Current Charge


@<TRIPOS>ATOM
      1 O15         -2.8960     1.8450    -0.5460 o          1 0X9      -0.720500
      2 C14         -2.0890     1.8790     0.3770 c          1 0X9       0.710000
      3 O16         -2.0980     2.7500     1.2370 o          1 0X9      -0.720500
      4 C13         -1.0450     0.6950     0.5140 c3         1 0X9       0.089500
      5 N17         -1.4640    -0.6130    -0.1070 n7         1 0X9      -0.898300
      6 S18         -2.8590    -1.3210     0.3570 s6         1 0X9       1.273200
      7 O20         -3.3690    -0.6660     1.5510 o          1 0X9      -0.601000
      8 N19         -3.7780    -0.8190    -0.8490 n8         1 0X9      -1.062100
      9 O21         -2.6980    -2.7650     0.2480 o          1 0X9      -0.601000
     10 C12          0.3260     1.1240    -0.0740 c3         1 0X9      -0.057400
     11 C11          1.4930     0.1640     0.2670 c3         1 0X9      -0.092400
     12 C30          2.8460     0.6480    -0.2920 c3         1 0X9       0.218800
     13 N13          3.9180    -0.2890     0.0720 nu         1 0X9      -0.897400
     14 C31          5.1850    -0.1350    -0.2740 c2         1 0X9       0.793100
     15 N16          5.6420     0.8100    -0.9460 n2         1 0X9      -0.899100
     16 N15          5.8220    -1.1830     0.1790 nv         1 0X9      -1.071200
     17 H2          -0.9030     0.5540     1.5950 h1         1 0X9       0.067700
     18 H3          -1.7320    -0.4400    -1.0720 hn         1 0X9       0.482000
     19 H4          -3.6870     0.1970    -0.7210 hn         1 0X9       0.493000
     20 H5          -4.6990    -1.0130    -0.4680 hn         1 0X9       0.493000
     21 H6           0.2380     1.2270    -1.1620 hc         1 0X9       0.049700
     22 H7           0.5740     2.1200     0.3140 hc         1 0X9       0.049700
     23 H8           1.5680     0.0640     1.3570 hc         1 0X9       0.043700
     24 H9           1.2760    -0.8330    -0.1350 hc         1 0X9       0.043700
     25 H10          2.7750     0.7330    -1.3860 h1         1 0X9       0.047700
     26 H11          3.0670     1.6460     0.1110 h1         1 0X9       0.047700
     27 H12          3.6610    -1.2640     0.1330 hn         1 0X9       0.463000
     28 H13          6.6420     0.6370    -1.0880 hn         1 0X9       0.364400
     29 H15          5.4860    -1.4390     1.0970 hn         1 0X9       0.444000
     30 H16          6.8270    -1.0960     0.1280 hn         1 0X9       0.444000
@<TRIPOS>BOND
     1     1     2 1   
     2     2     3 1   
     3     2     4 1   
     4     4     5 1   
     5     4    10 1   
     6     4    17 1   
     7     5     6 1   
     8     5    18 1   
     9     6     7 2   
    10     6     8 1   
    11     6     9 2   
    12     8    19 1   
    13     8    20 1   
    14    10    11 1   
    15    10    21 1   
    16    10    22 1   
    17    11    12 1   
    18    11    23 1   
    19    11    24 1   
    20    12    13 1   
    21    12    25 1   
    22    12    26 1   
    23    13    14 1   
    24    13    27 1   
    25    14    15 2   
    26    14    16 1   
    27    15    28 1   
    28    16    29 1   
    29    16    30 1   
@<TRIPOS>SUBSTRUCTURE
     1 0X9         1 TEMP              0 ****  ****    0 ROOT
