@<TRIPOS>MOLECULE
0X9
   30    29     1     0     0
SMALL
bcc


@<TRIPOS>ATOM
      1 O15         -3.2320     1.8170    -0.0610 o          1 0X9      -0.825800
      2 C14         -2.0760     2.0300     0.3710 c          1 0X9       0.920600
      3 O16         -1.6550     3.1010     0.8340 o          1 0X9      -0.825800
      4 C13         -1.0780     0.8430     0.3860 c3         1 0X9       0.089500
      5 N17         -1.4650    -0.2930    -0.4480 n7         1 0X9      -0.843100
      6 S18         -2.5550    -1.4160     0.0080 s6         1 0X9       1.414800
      7 O20         -2.5020    -1.5040     1.4620 o          1 0X9      -0.671800
      8 N19         -3.9740    -0.7990    -0.5530 n8         1 0X9      -0.951700
      9 O21         -2.3080    -2.6420    -0.7340 o          1 0X9      -0.671800
     10 C12          0.3400     1.2550    -0.0060 c3         1 0X9      -0.057400
     11 C11          1.3750     0.1690     0.2520 c3         1 0X9      -0.092400
     12 C30          2.7690     0.6100    -0.1650 c3         1 0X9       0.218800
     13 N13          3.7420    -0.4050     0.1660 nu         1 0X9      -0.842200
     14 C31          5.0370    -0.2950    -0.2600 c2         1 0X9       0.793100
     15 N16          5.3630     0.5920    -1.1290 n2         1 0X9      -0.899100
     16 N15          5.8810    -1.2600     0.2500 nv         1 0X9      -0.960800
     17 H2          -1.0390     0.4800     1.4170 h1         1 0X9       0.067700
     18 H3          -1.4730    -0.1140    -1.4460 hn         1 0X9       0.426800
     19 H4          -3.9940     0.2090    -0.3360 hn         1 0X9       0.437800
     20 H5          -4.7850    -1.3040    -0.2120 hn         1 0X9       0.437800
     21 H6           0.3580     1.5460    -1.0620 hc         1 0X9       0.049700
     22 H7           0.6010     2.1480     0.5610 hc         1 0X9       0.049700
     23 H8           1.3710    -0.0780     1.3200 hc         1 0X9       0.043700
     24 H9           1.1060    -0.7460    -0.2810 hc         1 0X9       0.043700
     25 H10          2.7970     0.7810    -1.2420 h1         1 0X9       0.047700
     26 H11          3.0140     1.5710     0.3070 h1         1 0X9       0.047700
     27 H12          3.5980    -0.8610     1.0530 hn         1 0X9       0.407800
     28 H13          6.3370     0.4900    -1.3900 hn         1 0X9       0.364400
     29 H15          5.6180    -1.6850     1.1260 hn         1 0X9       0.388800
     30 H16          6.8600    -1.0230     0.2300 hn         1 0X9       0.388800
@<TRIPOS>BOND
     1     1     2 1   
     2     2     3 1   
     3     2     4 1   
     4     4     5 1   
     5     4    10 1   
     6     4    17 1   
     7     5     6 1   
     8     5    18 1   
     9     6     7 2   
    10     6     8 1   
    11     6     9 2   
    12     8    19 1   
    13     8    20 1   
    14    10    11 1   
    15    10    21 1   
    16    10    22 1   
    17    11    12 1   
    18    11    23 1   
    19    11    24 1   
    20    12    13 1   
    21    12    25 1   
    22    12    26 1   
    23    13    14 1   
    24    13    27 1   
    25    14    15 2   
    26    14    16 1   
    27    15    28 1   
    28    16    29 1   
    29    16    30 1   
@<TRIPOS>SUBSTRUCTURE
     1 0X9         1 TEMP              0 ****  ****    0 ROOT
