@<TRIPOS>MOLECULE
0XC
   21    20     1     0     0
SMALL
No Charge or Current Charge


@<TRIPOS>ATOM
      1 OXT         -3.5170    -0.4570     0.9910 o          1 0XC      -0.706500
      2 C           -2.4530     0.1310     0.8040 c          1 0XC       0.627700
      3 O           -2.1600     1.1270     1.4600 o          1 0XC      -0.706500
      4 CA          -1.4610    -0.4000    -0.2740 ce         1 0XC       0.333300
      5 N           -1.7380    -1.4580    -0.9930 n2         1 0XC      -0.752100
      6 CB          -0.1510     0.3490    -0.5230 c3         1 0XC      -0.169700
      7 CG           1.0890    -0.3780     0.0470 c3         1 0XC      -0.082400
      8 CD           2.4090     0.3880    -0.1970 c3         1 0XC      -0.076400
      9 CE           3.6410    -0.3450     0.3740 c3         1 0XC       0.144800
     10 NZ           4.8840     0.4080     0.1270 n8         1 0XC      -0.997200
     11 H3          -0.9540    -1.6530    -1.6290 hn         1 0XC       0.308400
     12 H6          -0.0150     0.5010    -1.6010 hc         1 0XC       0.061700
     13 H7          -0.1910     1.3560    -0.0920 hc         1 0XC       0.061700
     14 H8           0.9530    -0.5260     1.1260 hc         1 0XC       0.028700
     15 H9           1.1650    -1.3750    -0.4050 hc         1 0XC       0.028700
     16 H10          2.5450     0.5350    -1.2760 hc         1 0XC       0.043700
     17 H11          2.3360     1.3830     0.2580 hc         1 0XC       0.043700
     18 H12          3.5220    -0.4790     1.4580 h1         1 0XC       0.022200
     19 H13          3.7320    -1.3360    -0.0920 h1         1 0XC       0.022200
     20 H14          4.8360     1.3030     0.6280 hn         1 0XC       0.382500
     21 H15          5.6660    -0.0820     0.5800 hn         1 0XC       0.382500
@<TRIPOS>BOND
     1     1     2 1   
     2     2     3 1   
     3     2     4 1   
     4     4     5 2   
     5     4     6 1   
     6     5    11 1   
     7     6     7 1   
     8     6    12 1   
     9     6    13 1   
    10     7     8 1   
    11     7    14 1   
    12     7    15 1   
    13     8     9 1   
    14     8    16 1   
    15     8    17 1   
    16     9    10 1   
    17     9    18 1   
    18     9    19 1   
    19    10    20 1   
    20    10    21 1   
@<TRIPOS>SUBSTRUCTURE
     1 0XC         1 TEMP              0 ****  ****    0 ROOT
