@<TRIPOS>MOLECULE
0XC
   21    20     1     0     0
SMALL
bcc


@<TRIPOS>ATOM
      1 OXT         -3.7750    -0.2880     0.1900 o          1 0XC      -0.811800
      2 C           -2.7290     0.3580     0.0220 c          1 0XC       0.838300
      3 O           -2.6150     1.5900    -0.1290 o          1 0XC      -0.811800
      4 CA          -1.4090    -0.4400    -0.0060 ce         1 0XC       0.333300
      5 N           -1.4770    -1.7060    -0.0090 n2         1 0XC      -0.752100
      6 CB          -0.1360     0.3670    -0.0400 c3         1 0XC      -0.169700
      7 CG           1.1530    -0.4390    -0.0040 c3         1 0XC      -0.082400
      8 CD           2.3910     0.4490    -0.0130 c3         1 0XC      -0.076400
      9 CE           3.6830    -0.3540     0.0200 c3         1 0XC       0.144800
     10 NZ           4.8450     0.5220     0.0250 n8         1 0XC      -0.886800
     11 H3          -0.5470    -2.1210    -0.0380 hn         1 0XC       0.308400
     12 H6          -0.1550     0.9970    -0.9350 hc         1 0XC       0.061700
     13 H7          -0.1560     1.0700     0.7980 hc         1 0XC       0.061700
     14 H8           1.1750    -1.0710     0.8910 hc         1 0XC       0.028700
     15 H9           1.1980    -1.1170    -0.8630 hc         1 0XC       0.028700
     16 H10          2.3870     1.0860    -0.9030 hc         1 0XC       0.043700
     17 H11          2.3620     1.1230     0.8500 hc         1 0XC       0.043700
     18 H12          3.6490    -1.0420     0.8780 h1         1 0XC       0.022200
     19 H13          3.7320    -0.9840    -0.8730 h1         1 0XC       0.022200
     20 H14          4.8720     1.0300     0.9010 hn         1 0XC       0.327300
     21 H15          5.6890    -0.0360     0.0090 hn         1 0XC       0.327300
@<TRIPOS>BOND
     1     1     2 1   
     2     2     3 1   
     3     2     4 1   
     4     4     5 2   
     5     4     6 1   
     6     5    11 1   
     7     6     7 1   
     8     6    12 1   
     9     6    13 1   
    10     7     8 1   
    11     7    14 1   
    12     7    15 1   
    13     8     9 1   
    14     8    16 1   
    15     8    17 1   
    16     9    10 1   
    17     9    18 1   
    18     9    19 1   
    19    10    20 1   
    20    10    21 1   
@<TRIPOS>SUBSTRUCTURE
     1 0XC         1 TEMP              0 ****  ****    0 ROOT
