@<TRIPOS>MOLECULE
0XD
   17    16     1     0     0
SMALL
abcg2


@<TRIPOS>ATOM
      1 CE           4.0650     0.5400    -0.0070 c3         1 0XD       0.037900
      2 SD           2.7250    -0.6700    -0.0280 ss         1 0XD      -0.457000
      3 CG           1.3030     0.4560    -0.0200 c3         1 0XD       0.071600
      4 CB           0.0190    -0.3540    -0.0240 c3         1 0XD      -0.165700
      5 CA          -1.2440     0.4730    -0.0040 ce         1 0XD       0.336300
      6 C           -2.5680    -0.3170     0.0610 c          1 0XD       0.628700
      7 O           -2.4610    -1.5510    -0.0690 o          1 0XD      -0.702000
      8 OXT         -3.6050     0.3410     0.2310 o          1 0XD      -0.702000
      9 N           -1.2990     1.7380    -0.0480 n2         1 0XD      -0.750100
     10 H1           4.0230     1.1550     0.8910 h1         1 0XD       0.048700
     11 H2           5.0070    -0.0060    -0.0110 h1         1 0XD       0.048700
     12 H3           4.0300     1.1810    -0.8870 h1         1 0XD       0.048700
     13 H4           1.3640     1.0900     0.8680 h1         1 0XD       0.048700
     14 H5           1.3650     1.1010    -0.9000 h1         1 0XD       0.048700
     15 H6          -0.0110    -1.0060    -0.9010 hc         1 0XD       0.075700
     16 H7           0.0010    -1.0280     0.8380 hc         1 0XD       0.075700
     17 H10         -0.3700     2.1520    -0.1010 hn         1 0XD       0.307400
@<TRIPOS>BOND
     1     1     2 1   
     2     1    10 1   
     3     1    11 1   
     4     1    12 1   
     5     2     3 1   
     6     3     4 1   
     7     3    13 1   
     8     3    14 1   
     9     4     5 1   
    10     4    15 1   
    11     4    16 1   
    12     5     6 1   
    13     5     9 2   
    14     6     7 1   
    15     6     8 1   
    16     9    17 1   
@<TRIPOS>SUBSTRUCTURE
     1 0XD         1 TEMP              0 ****  ****    0 ROOT
