@<TRIPOS>MOLECULE
0XD
   17    16     1     0     0
SMALL
No Charge or Current Charge


@<TRIPOS>ATOM
      1 CE           4.0380     0.4790     0.3730 c3         1 0XD       0.037900
      2 SD           2.7630    -0.5570    -0.4750 ss         1 0XD      -0.457000
      3 CG           1.2400     0.3910    -0.0320 c3         1 0XD       0.071600
      4 CB          -0.0030    -0.2880    -0.6330 c3         1 0XD      -0.165700
      5 CA          -1.2940     0.4570    -0.3090 ce         1 0XD       0.336300
      6 C           -2.2020    -0.0680     0.8410 c          1 0XD       0.628700
      7 O           -1.8510    -1.0510     1.4870 o          1 0XD      -0.702000
      8 OXT         -3.2560     0.5130     1.0950 o          1 0XD      -0.702000
      9 N           -1.6250     1.5070    -1.0160 n2         1 0XD      -0.750100
     10 H1           3.8340     0.5140     1.4510 h1         1 0XD       0.048700
     11 H2           5.0340     0.0480     0.2090 h1         1 0XD       0.048700
     12 H3           4.0180     1.5000    -0.0310 h1         1 0XD       0.048700
     13 H4           1.1490     0.4360     1.0610 h1         1 0XD       0.048700
     14 H5           1.3310     1.4160    -0.4160 h1         1 0XD       0.048700
     15 H6           0.1200    -0.3680    -1.7200 hc         1 0XD       0.075700
     16 H7          -0.0450    -1.3190    -0.2650 hc         1 0XD       0.075700
     17 H10         -0.9080     1.6840    -1.7310 hn         1 0XD       0.307400
@<TRIPOS>BOND
     1     1     2 1   
     2     1    10 1   
     3     1    11 1   
     4     1    12 1   
     5     2     3 1   
     6     3     4 1   
     7     3    13 1   
     8     3    14 1   
     9     4     5 1   
    10     4    15 1   
    11     4    16 1   
    12     5     6 1   
    13     5     9 2   
    14     6     7 1   
    15     6     8 1   
    16     9    17 1   
@<TRIPOS>SUBSTRUCTURE
     1 0XD         1 TEMP              0 ****  ****    0 ROOT
