@<TRIPOS>MOLECULE
0XE
   49    52     1     0     0
SMALL
bcc


@<TRIPOS>ATOM
      1 C1           6.3400     2.7060    -1.0210 ca         1 0XE      -0.138500
      2 C2           5.7100     3.8890    -0.6590 ca         1 0XE      -0.111000
      3 C3           4.4270     3.8530    -0.1290 ca         1 0XE      -0.138500
      4 C4           3.7740     2.6430     0.0400 ca         1 0XE      -0.086500
      5 C5           4.4060     1.4490    -0.3140 ca         1 0XE      -0.076800
      6 C6           5.6940     1.4930    -0.8510 ca         1 0XE      -0.086500
      7 C7           3.7290     0.1610    -0.1280 cc         1 0XE       0.226900
      8 C8           4.3460    -1.0350     0.0140 cd         1 0XE      -0.351200
      9 C9           3.5900    -2.2450     0.1880 c          1 0XE       0.616900
     10 O9           4.1180    -3.3600     0.3140 o          1 0XE      -0.614100
     11 O12          2.3990     0.2780    -0.0980 os         1 0XE      -0.202200
     12 C11          1.6020    -0.8010     0.0750 ca         1 0XE       0.188100
     13 C10          2.1500    -2.0740     0.2180 ca         1 0XE      -0.343600
     14 C17          1.2840    -3.1710     0.3970 ca         1 0XE       0.224100
     15 O17          1.7490    -4.4120     0.5330 oh         1 0XE      -0.490100
     16 C16         -0.0890    -2.9700     0.4180 ca         1 0XE       0.020100
     17 O16         -0.8840    -4.0480     0.5740 oh         1 0XE      -0.482100
     18 C14          0.2390    -0.5740     0.1060 ca         1 0XE      -0.221000
     19 C15         -0.5950    -1.6720     0.2670 ca         1 0XE       0.174100
     20 O18         -1.9440    -1.6020     0.2960 os         1 0XE      -0.340900
     21 C18         -2.5900    -0.4830    -0.2420 c6         1 0XE       0.319900
     22 O22         -2.5880     0.5110     0.7310 os         1 0XE      -0.380600
     23 C22         -3.1780     1.7090     0.2730 c6         1 0XE      -0.043900
     24 C23         -3.0250     2.8020     1.3480 c          1 0XE       0.943600
     25 O24         -2.2500     2.6080     2.2840 o          1 0XE      -0.799300
     26 O23         -3.7270     3.8270     1.1430 o          1 0XE      -0.799300
     27 C19         -4.0160    -0.8850    -0.6010 c6         1 0XE       0.074100
     28 O19         -4.0390    -1.8540    -1.6190 oh         1 0XE      -0.606800
     29 C20         -4.7490     0.3520    -1.1150 c6         1 0XE       0.143100
     30 O20         -6.1040     0.0810    -1.3620 oh         1 0XE      -0.575800
     31 C21         -4.6550     1.4750    -0.0950 c6         1 0XE       0.151100
     32 O21         -5.2260     2.6350    -0.6290 oh         1 0XE      -0.637800
     33 H1           7.3350     2.7270    -1.4470 ha         1 0XE       0.135000
     34 H2           6.2140     4.8370    -0.7960 ha         1 0XE       0.129000
     35 H3           3.9310     4.7720     0.1540 ha         1 0XE       0.135000
     36 H4           2.7780     2.6370     0.4630 ha         1 0XE       0.150000
     37 H5           6.1900     0.5820    -1.1580 ha         1 0XE       0.150000
     38 H6           5.4250    -1.0930     0.0160 ha         1 0XE       0.158000
     39 H8           2.7330    -4.3560     0.4840 ho         1 0XE       0.472000
     40 H9          -1.8100    -3.7810     0.5760 ho         1 0XE       0.431000
     41 H10         -0.1420     0.4340     0.0280 ha         1 0XE       0.191000
     42 H11         -2.0600    -0.1500    -1.1520 h2         1 0XE       0.037700
     43 H12         -2.6570     2.0610    -0.6350 h1         1 0XE       0.030700
     44 H14         -4.5170    -1.2420     0.3100 h1         1 0XE       0.065700
     45 H15         -3.9470    -2.7260    -1.2250 ho         1 0XE       0.406000
     46 H16         -4.2390     0.6870    -2.0350 h1         1 0XE       0.040700
     47 H17         -6.1520    -0.6460    -1.9920 ho         1 0XE       0.396000
     48 H18         -5.1820     1.1480     0.8200 h1         1 0XE       0.044700
     49 H19         -4.8550     3.3490    -0.0610 ho         1 0XE       0.472000
@<TRIPOS>BOND
     1     1     2 ar  
     2     1     6 ar  
     3     1    33 1   
     4     2     3 ar  
     5     2    34 1   
     6     3     4 ar  
     7     3    35 1   
     8     4     5 ar  
     9     4    36 1   
    10     5     6 ar  
    11     5     7 1   
    12     6    37 1   
    13     7     8 2   
    14     7    11 1   
    15     8     9 1   
    16     8    38 1   
    17     9    10 2   
    18     9    13 1   
    19    11    12 1   
    20    12    13 ar  
    21    12    18 ar  
    22    13    14 ar  
    23    14    15 1   
    24    14    16 ar  
    25    15    39 1   
    26    16    17 1   
    27    16    19 ar  
    28    17    40 1   
    29    18    19 ar  
    30    18    41 1   
    31    19    20 1   
    32    20    21 1   
    33    21    22 1   
    34    21    27 1   
    35    21    42 1   
    36    22    23 1   
    37    23    24 1   
    38    23    31 1   
    39    23    43 1   
    40    24    25 1   
    41    24    26 1   
    42    27    28 1   
    43    27    29 1   
    44    27    44 1   
    45    28    45 1   
    46    29    30 1   
    47    29    31 1   
    48    29    46 1   
    49    30    47 1   
    50    31    32 1   
    51    31    48 1   
    52    32    49 1   
@<TRIPOS>SUBSTRUCTURE
     1 0XE         1 TEMP              0 ****  ****    0 ROOT
