@<TRIPOS>MOLECULE
0XE
   49    52     1     0     0
SMALL
No Charge or Current Charge


@<TRIPOS>ATOM
      1 C1           6.4670     2.5930    -1.2490 ca         1 0XE      -0.120500
      2 C2           5.9410     3.8560    -0.9350 ca         1 0XE      -0.093000
      3 C3           4.6800     3.9550    -0.3250 ca         1 0XE      -0.120500
      4 C4           3.9470     2.7930    -0.0280 ca         1 0XE      -0.068500
      5 C5           4.4690     1.5170    -0.3320 ca         1 0XE      -0.076800
      6 C6           5.7360     1.4290    -0.9520 ca         1 0XE      -0.068500
      7 C7           3.6920     0.3120    -0.0220 cc         1 0XE       0.226900
      8 C8           4.3250    -0.8360     0.3980 cd         1 0XE      -0.401200
      9 C9           3.6160    -2.0580     0.6880 c          1 0XE       0.616900
     10 O9           4.1850    -3.0680     1.0790 o          1 0XE      -0.614100
     11 O12          2.3110     0.4140     0.0030 os         1 0XE      -0.202200
     12 C11          1.5970    -0.7720     0.0900 ca         1 0XE       0.188100
     13 C10          2.1630    -2.0080     0.4440 ca         1 0XE      -0.343600
     14 C17          1.3450    -3.1510     0.5510 ca         1 0XE       0.224100
     15 O17          1.9050    -4.3480     0.8960 oh         1 0XE      -0.529100
     16 C16         -0.0450    -3.0620     0.3030 ca         1 0XE       0.020100
     17 O16         -0.8600    -4.1680     0.4060 oh         1 0XE      -0.521100
     18 C14          0.2170    -0.6830    -0.1440 ca         1 0XE      -0.203000
     19 C15         -0.6120    -1.8190    -0.0440 ca         1 0XE       0.174100
     20 O18         -1.9770    -1.7780    -0.2850 os         1 0XE      -0.364100
     21 C18         -2.6630    -0.5300    -0.5100 c6         1 0XE       0.366300
     22 O22         -2.6390     0.2550     0.7010 os         1 0XE      -0.427000
     23 C22         -3.2270     1.5890     0.5650 c6         1 0XE      -0.020700
     24 C23         -3.0870     2.4690     1.8530 c          1 0XE       0.733000
     25 O24         -2.9280     1.8690     2.9100 o          1 0XE      -0.694000
     26 O23         -2.5380     3.5530     1.6910 o          1 0XE      -0.694000
     27 C19         -4.1480    -0.7950    -0.9200 c6         1 0XE       0.097300
     28 O19         -4.2670    -1.6100    -2.1150 oh         1 0XE      -0.729000
     29 C20         -4.8520     0.5760    -1.1210 c6         1 0XE       0.166300
     30 O20         -6.2320     0.3770    -1.4690 oh         1 0XE      -0.638000
     31 C21         -4.7250     1.4480     0.1670 c6         1 0XE       0.174300
     32 O21         -5.3470     2.7270    -0.0460 oh         1 0XE      -0.760000
     33 H1           7.4410     2.5140    -1.7280 ha         1 0XE       0.117000
     34 H2           6.5080     4.7560    -1.1650 ha         1 0XE       0.111000
     35 H3           4.2700     4.9330    -0.0830 ha         1 0XE       0.117000
     36 H4           2.9730     2.8880     0.4470 ha         1 0XE       0.132000
     37 H5           6.1540     0.4610    -1.2190 ha         1 0XE       0.132000
     38 H6           5.3980    -0.9000     0.5170 ha         1 0XE       0.208000
     39 H8           2.8660    -4.1570     1.0460 ho         1 0XE       0.511000
     40 H9          -1.7810    -3.8730     0.2340 ho         1 0XE       0.470000
     41 H10         -0.1900     0.2900    -0.4000 ha         1 0XE       0.173000
     42 H11         -2.1630     0.0190    -1.3220 h2         1 0XE       0.037700
     43 H12         -2.6940     2.1130    -0.2430 h1         1 0XE       0.030700
     44 H14         -4.6330    -1.3070    -0.0740 h1         1 0XE       0.065700
     45 H15         -3.6820    -2.3950    -1.9850 ho         1 0XE       0.505000
     46 H16         -4.3390     1.0990    -1.9420 h1         1 0XE       0.040700
     47 H17         -6.2260    -0.4140    -2.0540 ho         1 0XE       0.435000
     48 H18         -5.2410     0.9240     0.9870 h1         1 0XE       0.044700
     49 H19         -6.1680     2.5240    -0.5610 ho         1 0XE       0.571000
@<TRIPOS>BOND
     1     1     2 ar  
     2     1     6 ar  
     3     1    33 1   
     4     2     3 ar  
     5     2    34 1   
     6     3     4 ar  
     7     3    35 1   
     8     4     5 ar  
     9     4    36 1   
    10     5     6 ar  
    11     5     7 1   
    12     6    37 1   
    13     7     8 2   
    14     7    11 1   
    15     8     9 1   
    16     8    38 1   
    17     9    10 2   
    18     9    13 1   
    19    11    12 1   
    20    12    13 ar  
    21    12    18 ar  
    22    13    14 ar  
    23    14    15 1   
    24    14    16 ar  
    25    15    39 1   
    26    16    17 1   
    27    16    19 ar  
    28    17    40 1   
    29    18    19 ar  
    30    18    41 1   
    31    19    20 1   
    32    20    21 1   
    33    21    22 1   
    34    21    27 1   
    35    21    42 1   
    36    22    23 1   
    37    23    24 1   
    38    23    31 1   
    39    23    43 1   
    40    24    25 1   
    41    24    26 1   
    42    27    28 1   
    43    27    29 1   
    44    27    44 1   
    45    28    45 1   
    46    29    30 1   
    47    29    31 1   
    48    29    46 1   
    49    30    47 1   
    50    31    32 1   
    51    31    48 1   
    52    32    49 1   
@<TRIPOS>SUBSTRUCTURE
     1 0XE         1 TEMP              0 ****  ****    0 ROOT
