@<TRIPOS>MOLECULE
0XF
   51    53     1     0     0
SMALL
No Charge or Current Charge


@<TRIPOS>ATOM
      1 N3           1.7700     1.9200    -1.0830 nb         1 0XF      -0.428000
      2 C5          -0.5450     1.9900    -0.6430 ca         1 0XF       0.127500
      3 C6          -0.4490     0.7830     0.1190 ca         1 0XF       0.403000
      4 C8           0.8110     0.1960     0.2770 ca         1 0XF      -0.301000
      5 C15         -3.0840    -0.3270    -1.1030 ca         1 0XF      -0.195000
      6 C20          6.2660    -0.9690     1.4560 c6         1 0XF      -0.074400
      7 C21          4.9820    -0.5030     2.1800 c6         1 0XF      -0.073400
      8 C22          3.7300    -1.2180     1.6120 c6         1 0XF      -0.089400
      9 C24          4.9180    -1.4300    -0.6800 c6         1 0XF       0.151500
     10 C26          6.1610    -0.7240    -0.0680 c6         1 0XF      -0.076400
     11 C1           1.9010     0.8020    -0.3500 ca         1 0XF       0.604900
     12 N2           3.1900     0.3270    -0.2860 nu         1 0XF      -0.908100
     13 N4           0.5710     2.5130    -1.2300 nb         1 0XF      -0.268000
     14 N7          -1.5110     0.1030     0.7180 nu         1 0XF      -0.927900
     15 C9          -1.8360     2.7890    -0.7980 c          1 0XF       0.521600
     16 O10         -2.8360     2.6450    -0.1120 o          1 0XF      -0.598100
     17 N11         -1.8560     3.7610    -1.7460 nt         1 0XF      -0.586000
     18 C12         -5.0650    -1.5440    -0.4660 ca         1 0XF      -0.159300
     19 C14         -4.3050    -0.9120    -1.4680 ca         1 0XF      -0.043000
     20 C16         -2.6890    -0.3860     0.2400 ca         1 0XF       0.620900
     21 N17         -3.3770    -0.9990     1.1990 nb         1 0XF      -0.724000
     22 C18         -4.5550    -1.5640     0.8570 ca         1 0XF       0.397300
     23 C19         -5.3090    -2.2380     1.9930 c3         1 0XF      -0.146400
     24 C23          3.5840    -1.0460     0.0720 c6         1 0XF       0.245500
     25 H1           0.9270    -0.7180     0.8450 ha         1 0XF       0.127000
     26 H2          -6.3850    -3.2690    -0.6060 hc         1 0XF       0.040700
     27 H3          -7.2220    -1.7460    -0.2510 hc         1 0XF       0.040700
     28 H4          -6.6380    -2.0770    -1.8850 hc         1 0XF       0.040700
     29 H5          -2.4600     0.1550    -1.8470 ha         1 0XF       0.131000
     30 H6           7.1360    -0.4320     1.8600 hc         1 0XF       0.042200
     31 H7           6.4390    -2.0360     1.6510 hc         1 0XF       0.042200
     32 H8           5.0680    -0.7050     3.2570 hc         1 0XF       0.050200
     33 H9           4.8690     0.5850     2.0770 hc         1 0XF       0.050200
     34 H10          3.7980    -2.2900     1.8410 hc         1 0XF       0.048200
     35 H11          2.8330    -0.8560     2.1300 hc         1 0XF       0.048200
     36 H12          5.0600    -2.5170    -0.5830 h1         1 0XF       0.026700
     37 H13          6.1130     0.3570    -0.2600 hc         1 0XF       0.049700
     38 H14          7.0750    -1.0850    -0.5580 hc         1 0XF       0.049700
     39 H15          3.7760     0.7560    -1.0010 hn         1 0XF       0.524000
     40 H16         -1.3030    -0.3150     1.6180 hn         1 0XF       0.503000
     41 H17         -1.0360     3.9240    -2.3140 hn         1 0XF       0.319500
     42 H18         -2.6860     4.3230    -1.8670 hn         1 0XF       0.319500
     43 H19         -4.6460    -0.8790    -2.5000 ha         1 0XF       0.115000
     44 H20         -6.2940    -1.7790     2.1340 hc         1 0XF       0.051033
     45 H21         -5.4580    -3.3040     1.7840 hc         1 0XF       0.051033
     46 H22         -4.7710    -2.1620     2.9460 hc         1 0XF       0.051033
     47 H23          2.8050    -1.7390    -0.2810 h1         1 0XF       0.040700
     48 N25          4.8570    -1.1290    -2.1390 n8         1 0XF      -1.009200
     49 C13         -6.3990    -2.1940    -0.8220 c3         1 0XF      -0.033800
     50 H24          5.6900    -1.5220    -2.5930 hn         1 0XF       0.403000
     51 H25          4.0860    -1.6640    -2.5560 hn         1 0XF       0.403000
@<TRIPOS>BOND
     1     1    11 ar  
     2     1    13 ar  
     3     2     3 ar  
     4     2    13 ar  
     5     2    15 1   
     6     3     4 ar  
     7     3    14 1   
     8     4    11 ar  
     9     4    25 1   
    10     5    19 ar  
    11     5    20 ar  
    12     5    29 1   
    13     6     7 1   
    14     6    10 1   
    15     6    30 1   
    16     6    31 1   
    17     7     8 1   
    18     7    32 1   
    19     7    33 1   
    20     8    24 1   
    21     8    34 1   
    22     8    35 1   
    23     9    10 1   
    24     9    24 1   
    25     9    36 1   
    26     9    48 1   
    27    10    37 1   
    28    10    38 1   
    29    11    12 1   
    30    12    24 1   
    31    12    39 1   
    32    14    20 1   
    33    14    40 1   
    34    15    16 2   
    35    15    17 1   
    36    17    41 1   
    37    17    42 1   
    38    18    19 ar  
    39    18    22 ar  
    40    18    49 1   
    41    19    43 1   
    42    20    21 ar  
    43    21    22 ar  
    44    22    23 1   
    45    23    44 1   
    46    23    45 1   
    47    23    46 1   
    48    24    47 1   
    49    26    49 1   
    50    27    49 1   
    51    28    49 1   
    52    48    50 1   
    53    48    51 1   
@<TRIPOS>SUBSTRUCTURE
     1 0XF         1 TEMP              0 ****  ****    0 ROOT
