@<TRIPOS>MOLECULE
0XF
   51    53     1     0     0
SMALL
bcc


@<TRIPOS>ATOM
      1 N3           1.6730     1.6230    -1.1940 nb         1 0XF      -0.428000
      2 C5          -0.5260     1.5250    -0.5060 ca         1 0XF       0.192800
      3 C6          -0.3490     0.2620     0.1170 ca         1 0XF       0.199300
      4 C8           0.9360    -0.2400     0.1190 ca         1 0XF      -0.384300
      5 C15         -3.0390    -0.3660    -1.0620 ca         1 0XF      -0.278300
      6 C20          6.2430    -0.3920     1.4220 c6         1 0XF      -0.074400
      7 C21          4.8770    -0.0520     2.0050 c6         1 0XF      -0.073400
      8 C22          3.8260    -1.0530     1.5440 c6         1 0XF      -0.089400
      9 C24          5.1160    -1.4500    -0.5770 c6         1 0XF       0.151500
     10 C26          6.1780    -0.4630    -0.0990 c6         1 0XF      -0.076400
     11 C1           1.9460     0.4830    -0.5270 ca         1 0XF       0.670200
     12 N2           3.2270     0.0850    -0.5680 nu         1 0XF      -0.852900
     13 N4           0.4710     2.1050    -1.1490 nb         1 0XF      -0.268000
     14 N7          -1.3500    -0.4630     0.7070 nu         1 0XF      -0.734300
     15 C9          -1.7610     2.3550    -0.3720 c          1 0XF       0.588600
     16 O10         -2.5280     2.2080     0.5690 o          1 0XF      -0.598100
     17 N11         -1.9400     3.2660    -1.3400 nt         1 0XF      -0.653000
     18 C12         -5.2210    -1.2300    -0.5020 ca         1 0XF      -0.224600
     19 C14         -4.3460    -0.6450    -1.4100 ca         1 0XF      -0.061000
     20 C16         -2.6420    -0.6650     0.2370 ca         1 0XF       0.686200
     21 N17         -3.4550    -1.2380     1.1130 nb         1 0XF      -0.724000
     22 C18         -4.7070    -1.5230     0.7650 ca         1 0XF       0.462600
     23 C19         -5.5620    -2.1890     1.7980 c3         1 0XF      -0.146400
     24 C23          3.7350    -1.1390     0.0170 c6         1 0XF       0.245500
     25 H1           1.1350    -1.2070     0.5600 ha         1 0XF       0.145000
     26 H2          -6.8540    -2.6160    -0.7540 hc         1 0XF       0.040700
     27 H3          -7.3520    -1.0190    -0.2310 hc         1 0XF       0.040700
     28 H4          -6.8500    -1.2780    -1.8980 hc         1 0XF       0.040700
     29 H5          -2.3570     0.0510    -1.7900 ha         1 0XF       0.149000
     30 H6           6.9870     0.3470     1.7280 hc         1 0XF       0.042200
     31 H7           6.5790    -1.3550     1.8220 hc         1 0XF       0.042200
     32 H8           4.9190    -0.0400     3.0960 hc         1 0XF       0.050200
     33 H9           4.5860     0.9570     1.6940 hc         1 0XF       0.050200
     34 H10          4.0740    -2.0500     1.9240 hc         1 0XF       0.048200
     35 H11          2.8520    -0.8020     1.9710 hc         1 0XF       0.048200
     36 H12          5.3850    -2.4410    -0.1810 h1         1 0XF       0.026700
     37 H13          5.9720     0.5330    -0.5050 hc         1 0XF       0.049700
     38 H14          7.1470    -0.7630    -0.5080 hc         1 0XF       0.049700
     39 H15          3.8010     0.5350    -1.2650 hn         1 0XF       0.468800
     40 H16         -1.0480    -1.1530     1.3800 hn         1 0XF       0.447800
     41 H17         -1.2080     3.4450    -2.0080 hn         1 0XF       0.319500
     42 H18         -2.6600     3.9620    -1.2370 hn         1 0XF       0.319500
     43 H19         -4.6850    -0.4190    -2.4140 ha         1 0XF       0.133000
     44 H20         -6.4590    -1.6050     2.0120 hc         1 0XF       0.051033
     45 H21         -5.9020    -3.1690     1.4560 hc         1 0XF       0.051033
     46 H22         -5.0110    -2.3230     2.7270 hc         1 0XF       0.051033
     47 H23          3.0660    -1.9690    -0.2480 h1         1 0XF       0.040700
     48 N25          5.0450    -1.4250    -2.0290 n8         1 0XF      -0.898800
     49 C13         -6.6400    -1.5510    -0.8650 c3         1 0XF      -0.033800
     50 H24          5.9550    -1.6430    -2.4150 hn         1 0XF       0.347800
     51 H25          4.4220    -2.1540    -2.3570 hn         1 0XF       0.347800
@<TRIPOS>BOND
     1     1    11 ar  
     2     1    13 ar  
     3     2     3 ar  
     4     2    13 ar  
     5     2    15 1   
     6     3     4 ar  
     7     3    14 1   
     8     4    11 ar  
     9     4    25 1   
    10     5    19 ar  
    11     5    20 ar  
    12     5    29 1   
    13     6     7 1   
    14     6    10 1   
    15     6    30 1   
    16     6    31 1   
    17     7     8 1   
    18     7    32 1   
    19     7    33 1   
    20     8    24 1   
    21     8    34 1   
    22     8    35 1   
    23     9    10 1   
    24     9    24 1   
    25     9    36 1   
    26     9    48 1   
    27    10    37 1   
    28    10    38 1   
    29    11    12 1   
    30    12    24 1   
    31    12    39 1   
    32    14    20 1   
    33    14    40 1   
    34    15    16 2   
    35    15    17 1   
    36    17    41 1   
    37    17    42 1   
    38    18    19 ar  
    39    18    22 ar  
    40    18    49 1   
    41    19    43 1   
    42    20    21 ar  
    43    21    22 ar  
    44    22    23 1   
    45    23    44 1   
    46    23    45 1   
    47    23    46 1   
    48    24    47 1   
    49    26    49 1   
    50    27    49 1   
    51    28    49 1   
    52    48    50 1   
    53    48    51 1   
@<TRIPOS>SUBSTRUCTURE
     1 0XF         1 TEMP              0 ****  ****    0 ROOT
