@<TRIPOS>MOLECULE
0XG
   45    47     1     0     0
SMALL
No Charge or Current Charge


@<TRIPOS>ATOM
      1 C1           8.9540    -1.3400     0.3550 c3         1 0XG       0.089800
      2 C3           7.2620    -0.2490     1.8470 c3         1 0XG       0.089800
      3 O5           6.7700    -2.1430    -1.1620 o          1 0XG      -0.603100
      4 C7           4.0620    -1.2180    -0.7240 ca         1 0XG      -0.042000
      5 C8           2.8150    -0.5700    -0.7490 ca         1 0XG      -0.175000
      6 C9           2.7110     0.7930    -0.4220 ca         1 0XG       0.357000
      7 C10          3.8760     1.5060    -0.1040 ca         1 0XG      -0.175000
      8 C11          5.1270     0.8640    -0.0740 ca         1 0XG      -0.042000
      9 C13          0.1680     1.1220    -0.2940 ca         1 0XG       0.387900
     10 C15         -1.4340    -0.4060     0.2740 ca         1 0XG       0.135900
     11 C16         -2.4440     0.5520     0.0490 ca         1 0XG      -0.098000
     12 N18         -0.6970     2.1140    -0.5270 nb         1 0XG      -0.338000
     13 C20         -2.5610     4.1430    -1.0350 c3         1 0XG       0.160900
     14 C21         -3.8580     0.2030     0.2540 cc         1 0XG      -0.205000
     15 C22         -4.3430    -1.0380    -0.0750 cd         1 0XG      -0.062000
     16 C24         -6.2860    -0.0620     0.7740 cc         1 0XG      -0.201000
     17 O28         -5.9590    -3.4050    -0.5350 o          1 0XG      -0.717500
     18 N2           7.5860    -0.7990     0.5100 n          1 0XG      -0.411800
     19 C4           6.5610    -1.2400    -0.3610 c          1 0XG       0.623700
     20 C6           5.2300    -0.5150    -0.3620 ca         1 0XG      -0.196600
     21 N14         -0.1290    -0.1230     0.1090 nb         1 0XG      -0.245000
     22 C17         -2.0100     1.8390    -0.3620 ca         1 0XG       0.371300
     23 O19         -2.9500     2.8190    -0.6190 os         1 0XG      -0.436300
     24 C23         -5.7320    -1.2000     0.2160 cd         1 0XG      -0.157600
     25 S25         -5.1040     1.2310     0.9470 ss         1 0XG       0.108000
     26 C26         -6.5270    -2.4420    -0.0390 c          1 0XG       0.729600
     27 O27         -7.7150    -2.4550     0.2560 o          1 0XG      -0.717500
     28 H1           9.6600    -0.7640     0.9660 h1         1 0XG       0.037867
     29 H2           8.9760    -2.3900     0.6730 h1         1 0XG       0.037867
     30 H3           9.2650    -1.2740    -0.6960 h1         1 0XG       0.037867
     31 H4           7.9010    -0.7130     2.6090 h1         1 0XG       0.037867
     32 H5           7.4370     0.8340     1.8550 h1         1 0XG       0.037867
     33 H6           6.2160    -0.4530     2.1090 h1         1 0XG       0.037867
     34 H7           4.1170    -2.2750    -0.9820 ha         1 0XG       0.118000
     35 H8           1.9370    -1.1340    -1.0450 ha         1 0XG       0.135500
     36 H9           3.8180     2.5660     0.1230 ha         1 0XG       0.135500
     37 H10          6.0130     1.4530     0.1490 ha         1 0XG       0.118000
     38 H11         -1.6690    -1.4160     0.6070 h4         1 0XG       0.041100
     39 H12         -2.0060     4.1080    -1.9810 h1         1 0XG       0.043033
     40 H13         -3.4490     4.7710    -1.1850 h1         1 0XG       0.043033
     41 H14         -1.9300     4.6220    -0.2760 h1         1 0XG       0.043033
     42 H15         -3.7380    -1.8230    -0.5200 ha         1 0XG       0.139000
     43 H16         -7.3060     0.1080     1.0940 h4         1 0XG       0.154000
     44 H17          1.6050     2.4910    -0.5330 hn         1 0XG       0.503000
     45 N12          1.4950     1.4820    -0.4500 nu         1 0XG      -0.931900
@<TRIPOS>BOND
     1     1    18 1   
     2     1    28 1   
     3     1    29 1   
     4     1    30 1   
     5     2    18 1   
     6     2    31 1   
     7     2    32 1   
     8     2    33 1   
     9     3    19 2   
    10     4     5 ar  
    11     4    20 ar  
    12     4    34 1   
    13     5     6 ar  
    14     5    35 1   
    15     6     7 ar  
    16     6    45 1   
    17     7     8 ar  
    18     7    36 1   
    19     8    20 ar  
    20     8    37 1   
    21     9    12 ar  
    22     9    21 ar  
    23     9    45 1   
    24    10    11 ar  
    25    10    21 ar  
    26    10    38 1   
    27    11    14 1   
    28    11    22 ar  
    29    12    22 ar  
    30    13    23 1   
    31    13    39 1   
    32    13    40 1   
    33    13    41 1   
    34    14    15 2   
    35    14    25 1   
    36    15    24 1   
    37    15    42 1   
    38    16    24 2   
    39    16    25 1   
    40    16    43 1   
    41    17    26 1   
    42    18    19 1   
    43    19    20 1   
    44    22    23 1   
    45    24    26 1   
    46    26    27 1   
    47    44    45 1   
@<TRIPOS>SUBSTRUCTURE
     1 0XG         1 TEMP              0 ****  ****    0 ROOT
