@<TRIPOS>MOLECULE
0XG
   45    47     1     0     0
SMALL
abcg2


@<TRIPOS>ATOM
      1 C1           8.8290    -1.3790     0.2810 c3         1 0XG       0.089800
      2 C3           7.3690     0.0620     1.5980 c3         1 0XG       0.089800
      3 O5           6.6060    -2.2540    -1.0300 o          1 0XG      -0.603100
      4 C7           4.0010    -1.2800    -0.2130 ca         1 0XG      -0.042000
      5 C8           2.7610    -0.6620    -0.2300 ca         1 0XG      -0.175000
      6 C9           2.6800     0.7310    -0.3170 ca         1 0XG       0.357000
      7 C10          3.8710     1.4660    -0.3820 ca         1 0XG      -0.175000
      8 C11          5.0980     0.8370    -0.3380 ca         1 0XG      -0.042000
      9 C13          0.1990     1.0800    -0.2650 ca         1 0XG       0.387900
     10 C15         -1.4250    -0.4620    -0.0400 ca         1 0XG       0.135900
     11 C16         -2.4300     0.4860    -0.1140 ca         1 0XG      -0.098000
     12 N18         -0.6700     2.0930    -0.3320 nb         1 0XG      -0.338000
     13 C20         -2.3920     4.1230    -0.4460 c3         1 0XG       0.160900
     14 C21         -3.8400     0.1220    -0.0460 cc         1 0XG      -0.205000
     15 C22         -4.3680    -1.1380    -0.1470 cd         1 0XG      -0.062000
     16 C24         -6.3020     0.0490     0.2390 cc         1 0XG      -0.201000
     17 O28         -5.9620    -3.5110    -0.2590 o          1 0XG      -0.717500
     18 N2           7.5090    -0.8060     0.4460 n          1 0XG      -0.411800
     19 C4           6.4860    -1.2780    -0.2960 c          1 0XG       0.623700
     20 C6           5.1840    -0.5510    -0.2420 ca         1 0XG      -0.196600
     21 N14         -0.1260    -0.1940    -0.1180 nb         1 0XG      -0.245000
     22 C17         -1.9450     1.8060    -0.2590 ca         1 0XG       0.371300
     23 O19         -2.8380     2.7760    -0.3130 os         1 0XG      -0.436300
     24 C23         -5.7780    -1.1900     0.0170 cd         1 0XG      -0.157600
     25 S25         -5.1080     1.2700     0.2430 ss         1 0XG       0.108000
     26 C26         -6.5970    -2.4590    -0.0520 c          1 0XG       0.729600
     27 O27         -7.8270    -2.3390     0.1060 o          1 0XG      -0.717500
     28 H1           9.5750    -0.6090     0.4790 h1         1 0XG       0.037867
     29 H2           9.0010    -2.2050     0.9750 h1         1 0XG       0.037867
     30 H3           8.9720    -1.7420    -0.7330 h1         1 0XG       0.037867
     31 H4           7.8600    -0.3990     2.4570 h1         1 0XG       0.037867
     32 H5           7.8320     1.0350     1.4250 h1         1 0XG       0.037867
     33 H6           6.3270     0.2140     1.8610 h1         1 0XG       0.037867
     34 H7           4.0370    -2.3610    -0.1630 ha         1 0XG       0.118000
     35 H8           1.8670    -1.2610    -0.1820 ha         1 0XG       0.135500
     36 H9           3.8310     2.5460    -0.4650 ha         1 0XG       0.135500
     37 H10          5.9940     1.4430    -0.3940 ha         1 0XG       0.118000
     38 H11         -1.6770    -1.5080     0.0990 h4         1 0XG       0.041100
     39 H12         -1.8290     4.2650    -1.3680 h1         1 0XG       0.043033
     40 H13         -3.2930     4.7280    -0.4720 h1         1 0XG       0.043033
     41 H14         -1.7740     4.4230     0.4010 h1         1 0XG       0.043033
     42 H15         -3.7730    -2.0200    -0.3390 ha         1 0XG       0.139000
     43 H16         -7.3400     0.3060     0.3860 h4         1 0XG       0.154000
     44 H17          1.6180     2.4600    -0.4410 hn         1 0XG       0.503000
     45 N12          1.5030     1.4610    -0.3530 nu         1 0XG      -0.931900
@<TRIPOS>BOND
     1     1    18 1   
     2     1    28 1   
     3     1    29 1   
     4     1    30 1   
     5     2    18 1   
     6     2    31 1   
     7     2    32 1   
     8     2    33 1   
     9     3    19 2   
    10     4     5 ar  
    11     4    20 ar  
    12     4    34 1   
    13     5     6 ar  
    14     5    35 1   
    15     6     7 ar  
    16     6    45 1   
    17     7     8 ar  
    18     7    36 1   
    19     8    20 ar  
    20     8    37 1   
    21     9    12 ar  
    22     9    21 ar  
    23     9    45 1   
    24    10    11 ar  
    25    10    21 ar  
    26    10    38 1   
    27    11    14 1   
    28    11    22 ar  
    29    12    22 ar  
    30    13    23 1   
    31    13    39 1   
    32    13    40 1   
    33    13    41 1   
    34    14    15 2   
    35    14    25 1   
    36    15    24 1   
    37    15    42 1   
    38    16    24 2   
    39    16    25 1   
    40    16    43 1   
    41    17    26 1   
    42    18    19 1   
    43    19    20 1   
    44    22    23 1   
    45    24    26 1   
    46    26    27 1   
    47    44    45 1   
@<TRIPOS>SUBSTRUCTURE
     1 0XG         1 TEMP              0 ****  ****    0 ROOT
