@<TRIPOS>MOLECULE
0XH
   36    38     1     0     0
SMALL
No Charge or Current Charge


@<TRIPOS>ATOM
      1 C1          -6.2430     0.8110    -0.2270 ca         1 0XH      -0.077000
      2 C2          -5.4280     1.9520    -0.1710 ca         1 0XH      -0.105000
      3 C3          -4.0410     1.8260     0.0110 ca         1 0XH       0.151500
      4 C4          -3.4440     0.5480     0.1310 ca         1 0XH      -0.155600
      5 C5          -4.2770    -0.5970     0.0780 ca         1 0XH       0.151500
      6 C6          -5.6640    -0.4600    -0.1000 ca         1 0XH      -0.105000
      7 Cl1         -3.6480    -2.2310     0.3050 cl         1 0XH      -0.171000
      8 C8          -1.9560     0.4280     0.3250 c          1 0XH       0.635700
      9 O9          -1.3750     1.0450     1.2110 o          1 0XH      -0.543100
     10 N10         -1.3210    -0.4560    -0.5360 ns         1 0XH      -0.133000
     11 C11          0.0370    -0.8440    -0.6720 ca         1 0XH       0.045000
     12 C12          0.3530    -1.8740    -1.5700 ca         1 0XH      -0.258000
     13 C13          1.6890    -2.2690    -1.7380 ca         1 0XH       0.396900
     14 N14          2.7090    -1.7000    -1.0640 nb         1 0XH      -0.692000
     15 C15          2.4080    -0.7260    -0.1850 ca         1 0XH       0.512900
     16 C16          1.1070    -0.2520     0.0250 ca         1 0XH      -0.249000
     17 N17          3.4950    -0.1140     0.4500 ns         1 0XH      -0.327900
     18 C18          4.7240    -0.6180     0.8080 c          1 0XH       0.646100
     19 O19          5.0650    -1.7870     0.6810 o          1 0XH      -0.518100
     20 C20          5.6260     0.4090     1.4400 cx         1 0XH      -0.277700
     21 C22          7.1110     0.3920     1.1270 cx         1 0XH      -0.116400
     22 C23          6.2300     1.4700     0.5480 cx         1 0XH       0.174300
     23 F1           5.9630     1.4460    -0.7880 f          1 0XH      -0.217000
     24 Cl2         -3.0800     3.3070     0.0120 cl         1 0XH      -0.171000
     25 H1          -7.3170     0.9120    -0.3660 ha         1 0XH       0.128000
     26 H2          -5.8720     2.9390    -0.2740 ha         1 0XH       0.139500
     27 H3          -6.2940    -1.3460    -0.1300 ha         1 0XH       0.139500
     28 H4          -1.9430    -0.9120    -1.1900 hn         1 0XH       0.163000
     29 H5          -0.4250    -2.3700    -2.1440 ha         1 0XH       0.123000
     30 H6           1.9500    -3.0620    -2.4380 h4         1 0XH       0.024100
     31 H7           0.9580     0.5640     0.7220 ha         1 0XH       0.152000
     32 H8           3.3460     0.8580     0.6820 hn         1 0XH       0.155000
     33 H21          5.3400     0.7170     2.4420 hc         1 0XH       0.092700
     34 H9           7.8030     0.6800     1.9140 hc         1 0XH       0.097700
     35 H10          7.4900    -0.3660     0.4440 hc         1 0XH       0.097700
     36 H24          6.3260     2.4870     0.9290 h1         1 0XH       0.088700
@<TRIPOS>BOND
     1     1     2 ar  
     2     1     6 ar  
     3     1    25 1   
     4     2     3 ar  
     5     2    26 1   
     6     3     4 ar  
     7     3    24 1   
     8     4     5 ar  
     9     4     8 1   
    10     5     6 ar  
    11     5     7 1   
    12     6    27 1   
    13     8     9 2   
    14     8    10 1   
    15    10    11 1   
    16    10    28 1   
    17    11    12 ar  
    18    11    16 ar  
    19    12    13 ar  
    20    12    29 1   
    21    13    14 ar  
    22    13    30 1   
    23    14    15 ar  
    24    15    16 ar  
    25    15    17 1   
    26    16    31 1   
    27    17    18 1   
    28    17    32 1   
    29    18    19 2   
    30    18    20 1   
    31    20    21 1   
    32    20    22 1   
    33    20    33 1   
    34    21    22 1   
    35    21    34 1   
    36    21    35 1   
    37    22    23 1   
    38    22    36 1   
@<TRIPOS>SUBSTRUCTURE
     1 0XH         1 TEMP              0 ****  ****    0 ROOT
