@<TRIPOS>MOLECULE
0XH
   36    38     1     0     0
SMALL
abcg2


@<TRIPOS>ATOM
      1 C1          -6.1580     0.7210     0.0570 ca         1 0XH      -0.077000
      2 C2          -5.3680     1.5970    -0.6730 ca         1 0XH      -0.105000
      3 C3          -3.9910     1.4630    -0.6160 ca         1 0XH       0.151500
      4 C4          -3.3890     0.4740     0.1510 ca         1 0XH      -0.155600
      5 C5          -4.2070    -0.3870     0.8710 ca         1 0XH       0.151500
      6 C6          -5.5870    -0.2770     0.8320 ca         1 0XH      -0.105000
      7 CL1         -3.4760    -1.6270     1.8280 cl         1 0XH      -0.171000
      8 C8          -1.8930     0.3860     0.2600 c          1 0XH       0.635700
      9 O9          -1.2860     1.0130     1.1000 o          1 0XH      -0.543100
     10 N10         -1.3420    -0.4440    -0.6590 ns         1 0XH      -0.133000
     11 C11         -0.0050    -0.7680    -0.8510 ca         1 0XH       0.045000
     12 C12          0.2960    -1.6540    -1.8920 ca         1 0XH      -0.258000
     13 C13          1.6140    -1.9870    -2.1030 ca         1 0XH       0.396900
     14 N14          2.6320    -1.5240    -1.3810 nb         1 0XH      -0.692000
     15 C15          2.3400    -0.6870    -0.4040 ca         1 0XH       0.512900
     16 C16          1.0410    -0.2720    -0.0880 ca         1 0XH      -0.249000
     17 N17          3.3590    -0.1730     0.3910 ns         1 0XH      -0.327900
     18 C18          4.7150    -0.2890     0.2530 c          1 0XH       0.646100
     19 O19          5.2700    -0.8880    -0.6420 o          1 0XH      -0.518100
     20 C20          5.4550     0.4300     1.3310 cx         1 0XH      -0.277700
     21 C22          6.9280     0.1340     1.5050 cx         1 0XH      -0.116400
     22 C23          6.5100     1.4250     0.9400 cx         1 0XH       0.174300
     23 F1           6.7130     1.6580    -0.3910 f          1 0XH      -0.217000
     24 CL2         -2.9910     2.5390    -1.5260 cl         1 0XH      -0.171000
     25 H1          -7.2340     0.8180     0.0200 ha         1 0XH       0.128000
     26 H2          -5.8180     2.3720    -1.2770 ha         1 0XH       0.139500
     27 H3          -6.2050    -0.9580     1.3980 ha         1 0XH       0.139500
     28 H4          -1.9860    -0.8930    -1.2950 hn         1 0XH       0.163000
     29 H5          -0.4820    -2.0680    -2.5200 ha         1 0XH       0.123000
     30 H6           1.8690    -2.6710    -2.9040 h4         1 0XH       0.024100
     31 H7           0.8780     0.4160     0.7260 ha         1 0XH       0.152000
     32 H8           3.0450     0.3950     1.1630 hn         1 0XH       0.155000
     33 H21          4.8910     0.6840     2.2220 hc         1 0XH       0.092700
     34 H9           7.3210     0.1170     2.5120 hc         1 0XH       0.097700
     35 H10          7.3510    -0.6010     0.8310 hc         1 0XH       0.097700
     36 H24          6.5900     2.3330     1.5250 h1         1 0XH       0.088700
@<TRIPOS>BOND
     1     1     2 ar  
     2     1     6 ar  
     3     1    25 1   
     4     2     3 ar  
     5     2    26 1   
     6     3     4 ar  
     7     3    24 1   
     8     4     5 ar  
     9     4     8 1   
    10     5     6 ar  
    11     5     7 1   
    12     6    27 1   
    13     8     9 2   
    14     8    10 1   
    15    10    11 1   
    16    10    28 1   
    17    11    12 ar  
    18    11    16 ar  
    19    12    13 ar  
    20    12    29 1   
    21    13    14 ar  
    22    13    30 1   
    23    14    15 ar  
    24    15    16 ar  
    25    15    17 1   
    26    16    31 1   
    27    17    18 1   
    28    17    32 1   
    29    18    19 2   
    30    18    20 1   
    31    20    21 1   
    32    20    22 1   
    33    20    33 1   
    34    21    22 1   
    35    21    34 1   
    36    21    35 1   
    37    22    23 1   
    38    22    36 1   
@<TRIPOS>SUBSTRUCTURE
     1 0XH         1 TEMP              0 ****  ****    0 ROOT
