@<TRIPOS>MOLECULE
0XJ
   57    60     1     0     0
SMALL
bcc


@<TRIPOS>ATOM
      1 C8          -1.1210    -0.2780     0.5110 c6         1 0XJ      -0.041700
      2 C5           1.1190     1.5340     0.6730 c2         1 0XJ      -0.079400
      3 C6           1.1170     0.2930     1.5340 c6         1 0XJ       0.181300
      4 C2           0.9060     3.9550    -0.7970 ce         1 0XJ      -0.248200
      5 C4           1.7210     2.6370     1.1360 ce         1 0XJ      -0.242200
      6 C17         -4.7170    -1.2820     0.1330 c          1 0XJ       0.580100
      7 C13         -3.4050    -0.8150    -0.4580 c5         1 0XJ      -0.155000
      8 C18         -2.9300    -1.9910    -1.3330 c3         1 0XJ      -0.079100
      9 C12         -3.4260     0.4840    -1.2460 c6         1 0XJ      -0.051400
     10 C11         -1.9960     0.9340    -1.5620 c6         1 0XJ      -0.072400
     11 C16         -4.4160    -2.0070     1.4370 c5         1 0XJ      -0.191400
     12 C15         -2.9070    -1.8430     1.6700 c5         1 0XJ      -0.067400
     13 C14         -2.5700    -0.6220     0.8110 c5         1 0XJ      -0.062700
     14 C9          -1.1080     1.0290    -0.3110 c6         1 0XJ      -0.039700
     15 C7          -0.3200    -0.1190     1.7960 c6         1 0XJ      -0.066400
     16 C10          0.3520     1.5050    -0.6250 c6         1 0XJ       0.013400
     17 C19          1.0500     0.5820    -1.6510 c3         1 0XJ      -0.075100
     18 C1           0.3070     2.8580    -1.2640 c2         1 0XJ      -0.098200
     19 C3           1.6780     3.9250     0.4440 c          1 0XJ       0.566500
     20 O1           2.2460     4.9140     0.8850 o          1 0XJ      -0.523100
     21 O            1.7820    -0.7990     0.9350 os         1 0XJ      -0.398600
     22 C20          3.1830    -0.6440     0.8820 c3         1 0XJ       0.225500
     23 C21          3.7540    -1.7740     0.1620 c1         1 0XJ      -0.153100
     24 C22          4.2340    -2.7000    -0.4370 c1         1 0XJ      -0.106100
     25 C23          4.8270    -3.8180    -1.1620 c3         1 0XJ       0.006700
     26 C24          6.3190    -3.9810    -0.8730 c3         1 0XJ      -0.087100
     27 H1          -0.6820    -1.0910    -0.0760 hc         1 0XJ       0.071700
     28 H2           1.5990     0.5390     2.4910 h1         1 0XJ       0.044700
     29 H3           0.8420     4.8940    -1.3330 ha         1 0XJ       0.151000
     30 H4           2.2560     2.6090     2.0810 ha         1 0XJ       0.145000
     31 H5          -3.5880    -2.0970    -2.1960 hc         1 0XJ       0.042033
     32 H6          -1.9180    -1.8400    -1.7070 hc         1 0XJ       0.042033
     33 H7          -2.9300    -2.9420    -0.7990 hc         1 0XJ       0.042033
     34 H8          -3.9930     0.3810    -2.1750 hc         1 0XJ       0.052700
     35 H9          -3.9240     1.2590    -0.6550 hc         1 0XJ       0.052700
     36 H10         -1.5480     0.2570    -2.2920 hc         1 0XJ       0.043700
     37 H11         -2.0520     1.9070    -2.0530 hc         1 0XJ       0.043700
     38 H12         -4.9970    -1.5320     2.2330 hc         1 0XJ       0.072700
     39 H13         -4.7510    -3.0450     1.3850 hc         1 0XJ       0.072700
     40 H14         -2.6730    -1.6920     2.7230 hc         1 0XJ       0.051200
     41 H15         -2.3540    -2.7240     1.3390 hc         1 0XJ       0.051200
     42 H16         -2.9970     0.2490     1.3330 hc         1 0XJ       0.047700
     43 H17         -1.5480     1.8020     0.3350 hc         1 0XJ       0.050700
     44 H18         -0.7850     0.6460     2.4260 hc         1 0XJ       0.056200
     45 H19         -0.3240    -1.0460     2.3760 hc         1 0XJ       0.056200
     46 H20          0.5940     0.6930    -2.6340 hc         1 0XJ       0.046700
     47 H21          2.1020     0.8510    -1.7500 hc         1 0XJ       0.046700
     48 H22          0.9930    -0.4660    -1.3690 hc         1 0XJ       0.046700
     49 H23         -0.2300     2.9210    -2.2040 ha         1 0XJ       0.130000
     50 H24          3.4720     0.2890     0.3820 h1         1 0XJ       0.042700
     51 H25          3.6050    -0.5940     1.8960 h1         1 0XJ       0.042700
     52 H26          4.2980    -4.7360    -0.8940 hc         1 0XJ       0.057200
     53 H27          4.6700    -3.6750    -2.2340 hc         1 0XJ       0.057200
     54 H28          6.7190    -4.8210    -1.4410 hc         1 0XJ       0.039367
     55 H29          6.8750    -3.0870    -1.1550 hc         1 0XJ       0.039367
     56 H30          6.4960    -4.1730     0.1840 hc         1 0XJ       0.039367
     57 O2          -5.8140    -1.1160    -0.3430 o          1 0XJ      -0.510100
@<TRIPOS>BOND
     1     1    13 1   
     2     1    14 1   
     3     1    15 1   
     4     1    27 1   
     5     2     3 1   
     6     2     5 2   
     7     2    16 1   
     8     3    15 1   
     9     3    21 1   
    10     3    28 1   
    11     4    18 2   
    12     4    19 1   
    13     4    29 1   
    14     5    19 1   
    15     5    30 1   
    16     6     7 1   
    17     6    11 1   
    18     6    57 2   
    19     7     8 1   
    20     7     9 1   
    21     7    13 1   
    22     8    31 1   
    23     8    32 1   
    24     8    33 1   
    25     9    10 1   
    26     9    34 1   
    27     9    35 1   
    28    10    14 1   
    29    10    36 1   
    30    10    37 1   
    31    11    12 1   
    32    11    38 1   
    33    11    39 1   
    34    12    13 1   
    35    12    40 1   
    36    12    41 1   
    37    13    42 1   
    38    14    16 1   
    39    14    43 1   
    40    15    44 1   
    41    15    45 1   
    42    16    17 1   
    43    16    18 1   
    44    17    46 1   
    45    17    47 1   
    46    17    48 1   
    47    18    49 1   
    48    19    20 2   
    49    21    22 1   
    50    22    23 1   
    51    22    50 1   
    52    22    51 1   
    53    23    24 3   
    54    24    25 1   
    55    25    26 1   
    56    25    52 1   
    57    25    53 1   
    58    26    54 1   
    59    26    55 1   
    60    26    56 1   
@<TRIPOS>SUBSTRUCTURE
     1 0XJ         1 TEMP              0 ****  ****    0 ROOT
