@<TRIPOS>MOLECULE
0XJ
   57    60     1     0     0
SMALL
No Charge or Current Charge


@<TRIPOS>ATOM
      1 C8          -1.1400    -0.2570     0.5320 c6         1 0XJ      -0.041700
      2 C5           1.1460     1.6140     0.7970 c2         1 0XJ      -0.079400
      3 C6           1.0630     0.3520     1.7020 c6         1 0XJ       0.204500
      4 C2           1.0980     3.9960    -0.7960 ce         1 0XJ      -0.298200
      5 C4           1.8070     2.7170     1.2260 ce         1 0XJ      -0.292200
      6 C17         -4.7800    -1.2740     0.0200 c          1 0XJ       0.580100
      7 C13         -3.4110    -0.8820    -0.5730 c5         1 0XJ      -0.155000
      8 C18         -2.8890    -2.0440    -1.4900 c3         1 0XJ      -0.079100
      9 C12         -3.3910     0.4510    -1.3770 c6         1 0XJ      -0.051400
     10 C11         -1.9360     0.9430    -1.6350 c6         1 0XJ      -0.072400
     11 C16         -4.4360    -2.2410     1.1700 c5         1 0XJ      -0.191400
     12 C15         -2.9530    -1.9400     1.5810 c5         1 0XJ      -0.067400
     13 C14         -2.6250    -0.6590     0.7530 c5         1 0XJ      -0.062700
     14 C9          -1.0800     1.0680    -0.3200 c6         1 0XJ      -0.039700
     15 C7          -0.4060    -0.0720     1.8870 c6         1 0XJ      -0.066400
     16 C10          0.4050     1.5520    -0.5620 c6         1 0XJ       0.013400
     17 C19          1.2060     0.6070    -1.5150 c3         1 0XJ      -0.075100
     18 C1           0.4240     2.9210    -1.2610 c2         1 0XJ      -0.148200
     19 C3           1.8650     3.9870     0.4690 c          1 0XJ       0.566500
     20 O1           2.4840     4.9620     0.8680 o          1 0XJ      -0.523100
     21 O            1.8590    -0.7870     1.2510 os         1 0XJ      -0.445000
     22 C20          3.2780    -0.5790     1.1740 c3         1 0XJ       0.248700
     23 C21          3.8960    -1.8040     0.6580 c1         1 0XJ      -0.153100
     24 C22          4.3900    -2.8120     0.2050 c1         1 0XJ      -0.106100
     25 C23          4.9650    -4.0330    -0.3710 c3         1 0XJ       0.006700
     26 C24          5.6180    -3.7850    -1.7460 c3         1 0XJ      -0.087100
     27 H1          -0.6430    -1.0690    -0.0140 hc         1 0XJ       0.071700
     28 H2           1.4380     0.6210     2.7010 h1         1 0XJ       0.044700
     29 H3           1.1090     4.9360    -1.3450 ha         1 0XJ       0.201000
     30 H4           2.3200     2.7310     2.1850 ha         1 0XJ       0.195000
     31 H5          -3.5170    -2.1450    -2.3830 hc         1 0XJ       0.042033
     32 H6          -1.8630    -1.8800    -1.8340 hc         1 0XJ       0.042033
     33 H7          -2.8950    -3.0180    -0.9890 hc         1 0XJ       0.042033
     34 H8          -3.9250     0.3330    -2.3310 hc         1 0XJ       0.052700
     35 H9          -3.9340     1.2270    -0.8200 hc         1 0XJ       0.052700
     36 H10         -1.4460     0.2740    -2.3520 hc         1 0XJ       0.043700
     37 H11         -2.0050     1.9160    -2.1350 hc         1 0XJ       0.043700
     38 H12         -5.1660    -2.1460     1.9810 hc         1 0XJ       0.072700
     39 H13         -4.4850    -3.2620     0.7770 hc         1 0XJ       0.072700
     40 H14         -2.8500    -1.7720     2.6590 hc         1 0XJ       0.051200
     41 H15         -2.2860    -2.7710     1.3220 hc         1 0XJ       0.051200
     42 H16         -3.0570     0.1990     1.2870 hc         1 0XJ       0.047700
     43 H17         -1.5610     1.8520     0.2830 hc         1 0XJ       0.050700
     44 H18         -0.9220     0.6910     2.4860 hc         1 0XJ       0.056200
     45 H19         -0.4400    -1.0000     2.4730 hc         1 0XJ       0.056200
     46 H20          0.8210     0.6400    -2.5400 hc         1 0XJ       0.046700
     47 H21          2.2600     0.9080    -1.5650 hc         1 0XJ       0.046700
     48 H22          1.1820    -0.4400    -1.1990 hc         1 0XJ       0.046700
     49 H23         -0.0990     2.9940    -2.2150 ha         1 0XJ       0.180000
     50 H24          3.5200     0.2520     0.4990 h1         1 0XJ       0.042700
     51 H25          3.6940    -0.3530     2.1650 h1         1 0XJ       0.042700
     52 H26          5.7130    -4.4390     0.3220 hc         1 0XJ       0.057200
     53 H27          4.1750    -4.7880    -0.4720 hc         1 0XJ       0.057200
     54 H28          6.0330    -4.7190    -2.1440 hc         1 0XJ       0.039367
     55 H29          4.8820    -3.4050    -2.4650 hc         1 0XJ       0.039367
     56 H30          6.4350    -3.0560    -1.6650 hc         1 0XJ       0.039367
     57 O2          -5.8540    -0.7120    -0.1540 o          1 0XJ      -0.510100
@<TRIPOS>BOND
     1     1    13 1   
     2     1    14 1   
     3     1    15 1   
     4     1    27 1   
     5     2     3 1   
     6     2     5 2   
     7     2    16 1   
     8     3    15 1   
     9     3    21 1   
    10     3    28 1   
    11     4    18 2   
    12     4    19 1   
    13     4    29 1   
    14     5    19 1   
    15     5    30 1   
    16     6     7 1   
    17     6    11 1   
    18     6    57 2   
    19     7     8 1   
    20     7     9 1   
    21     7    13 1   
    22     8    31 1   
    23     8    32 1   
    24     8    33 1   
    25     9    10 1   
    26     9    34 1   
    27     9    35 1   
    28    10    14 1   
    29    10    36 1   
    30    10    37 1   
    31    11    12 1   
    32    11    38 1   
    33    11    39 1   
    34    12    13 1   
    35    12    40 1   
    36    12    41 1   
    37    13    42 1   
    38    14    16 1   
    39    14    43 1   
    40    15    44 1   
    41    15    45 1   
    42    16    17 1   
    43    16    18 1   
    44    17    46 1   
    45    17    47 1   
    46    17    48 1   
    47    18    49 1   
    48    19    20 2   
    49    21    22 1   
    50    22    23 1   
    51    22    50 1   
    52    22    51 1   
    53    23    24 3   
    54    24    25 1   
    55    25    26 1   
    56    25    52 1   
    57    25    53 1   
    58    26    54 1   
    59    26    55 1   
    60    26    56 1   
@<TRIPOS>SUBSTRUCTURE
     1 0XJ         1 TEMP              0 ****  ****    0 ROOT
