@<TRIPOS>MOLECULE
0XL
   21    20     1     0     0
SMALL
abcg2


@<TRIPOS>ATOM
      1 CAD         -0.1410     0.3390    -0.1770 c3         1 0XL       0.035200
      2 CAE          1.3230     0.1400     0.3210 c          1 0XL       0.724000
      3 CAZ         -1.1270     0.3490     1.0040 c3         1 0XL      -0.067900
      4 NAC         -0.2030     1.5810    -0.9520 n8         1 0XL      -0.961200
      5 OAG          1.4820    -0.3530     1.4560 o          1 0XL      -0.723500
      6 CBA         -0.4580    -0.7970    -1.1660 c3         1 0XL      -0.067900
      7 CBD         -0.5100    -2.1950    -0.5670 c3         1 0XL      -0.083600
      8 CBE         -2.5980     0.4420     0.6140 c3         1 0XL      -0.083600
      9 H8          -0.9840    -0.5370     1.6240 hc         1 0XL       0.035200
     10 H9          -0.8790     1.1990     1.6490 hc         1 0XL       0.035200
     11 H10         -1.1570     1.7290    -1.2640 hn         1 0XL       0.359500
     12 H14         -1.4170    -0.5830    -1.6510 hc         1 0XL       0.035200
     13 H15          0.2920    -0.7640    -1.9600 hc         1 0XL       0.035200
     14 H20          0.4270    -2.4660    -0.0800 hc         1 0XL       0.015367
     15 H21         -1.3050    -2.2930     0.1730 hc         1 0XL       0.015367
     16 H22         -0.7000    -2.9370    -1.3450 hc         1 0XL       0.015367
     17 H23         -2.8100     1.3040    -0.0220 hc         1 0XL       0.015367
     18 H24         -2.9360    -0.4500     0.0820 hc         1 0XL       0.015367
     19 H25         -3.2250     0.5410     1.5020 hc         1 0XL       0.015367
     20 H2           0.0030     2.3680    -0.3460 hn         1 0XL       0.359500
     21 OXT          2.2330     0.4600    -0.4690 o          1 0XL      -0.723500
@<TRIPOS>BOND
     1     1     2 1   
     2     1     3 1   
     3     1     4 1   
     4     1     6 1   
     5     2     5 1   
     6     2    21 1   
     7     3     8 1   
     8     3     9 1   
     9     3    10 1   
    10     4    11 1   
    11     4    20 1   
    12     6     7 1   
    13     6    12 1   
    14     6    13 1   
    15     7    14 1   
    16     7    15 1   
    17     7    16 1   
    18     8    17 1   
    19     8    18 1   
    20     8    19 1   
@<TRIPOS>SUBSTRUCTURE
     1 0XL         1 TEMP              0 ****  ****    0 ROOT
