@<TRIPOS>MOLECULE
0XL
   21    20     1     0     0
SMALL
No Charge or Current Charge


@<TRIPOS>ATOM
      1 CAD         -0.1240     0.3260    -0.1950 c3         1 0XL       0.035200
      2 CAE          1.3690     0.0980     0.3690 c          1 0XL       0.724000
      3 CAZ         -1.1540     0.3650     0.9930 c3         1 0XL      -0.067900
      4 NAC         -0.2800     1.6260    -0.9420 n8         1 0XL      -0.961200
      5 OAG          1.5680     0.1240     1.5790 o          1 0XL      -0.723500
      6 CBA         -0.4610    -0.8210    -1.2090 c3         1 0XL      -0.067900
      7 CBD         -0.4420    -2.2540    -0.6280 c3         1 0XL      -0.083600
      8 CBE         -2.6520     0.4960     0.6180 c3         1 0XL      -0.083600
      9 H8          -1.0390    -0.5380     1.6050 hc         1 0XL       0.035200
     10 H9          -0.9010     1.2050     1.6530 hc         1 0XL       0.035200
     11 H10         -1.2790     1.8050    -1.0800 hn         1 0XL       0.359500
     12 H14         -1.4430    -0.6460    -1.6650 hc         1 0XL       0.035200
     13 H15          0.2560    -0.7850    -2.0390 hc         1 0XL       0.035200
     14 H20          0.5280    -2.4860    -0.1720 hc         1 0XL       0.015367
     15 H21         -1.2230    -2.3860     0.1300 hc         1 0XL       0.015367
     16 H22         -0.6240    -2.9850    -1.4250 hc         1 0XL       0.015367
     17 H23         -2.8430     1.3970     0.0220 hc         1 0XL       0.015367
     18 H24         -3.0010    -0.3770     0.0540 hc         1 0XL       0.015367
     19 H25         -3.2600     0.5650     1.5280 hc         1 0XL       0.015367
     20 H2           0.0290     2.3960    -0.3390 hn         1 0XL       0.359500
     21 OXT          2.2860    -0.0480    -0.4320 o          1 0XL      -0.723500
@<TRIPOS>BOND
     1     1     2 1   
     2     1     3 1   
     3     1     4 1   
     4     1     6 1   
     5     2     5 1   
     6     2    21 1   
     7     3     8 1   
     8     3     9 1   
     9     3    10 1   
    10     4    11 1   
    11     4    20 1   
    12     6     7 1   
    13     6    12 1   
    14     6    13 1   
    15     7    14 1   
    16     7    15 1   
    17     7    16 1   
    18     8    17 1   
    19     8    18 1   
    20     8    19 1   
@<TRIPOS>SUBSTRUCTURE
     1 0XL         1 TEMP              0 ****  ****    0 ROOT
