@<TRIPOS>MOLECULE
0XM
   27    28     1     0     0
SMALL
No Charge or Current Charge


@<TRIPOS>ATOM
      1 NAV         -0.0400     2.0700    -1.4190 n8         1 0XM      -0.990200
      2 CBF          0.0300     0.6220    -1.1620 c3         1 0XM       0.255100
      3 CBG          1.2880     0.2110    -0.3870 ca         1 0XM      -0.102300
      4 CBH         -1.2490     0.1430    -0.4760 ca         1 0XM      -0.102300
      5 CBI         -2.1510    -0.6910    -1.1700 ca         1 0XM      -0.099500
      6 CBJ         -3.3290    -1.1410    -0.5490 ca         1 0XM      -0.112500
      7 CBK         -3.6170    -0.7620     0.7730 ca         1 0XM      -0.108000
      8 CBL         -2.7250     0.0670     1.4730 ca         1 0XM      -0.112500
      9 CBM         -1.5470     0.5180     0.8530 ca         1 0XM      -0.099500
     10 CBN          1.8770     1.0450     0.5920 ca         1 0XM      -0.099500
     11 CBO          3.0240     0.6260     1.2890 ca         1 0XM      -0.112500
     12 CBP          3.5940    -0.6290     1.0210 ca         1 0XM      -0.108000
     13 CBQ          3.0140    -1.4670     0.0540 ca         1 0XM      -0.112500
     14 CBR          1.8680    -1.0490    -0.6440 ca         1 0XM      -0.099500
     15 H12         -0.9120     2.2610    -1.9230 hn         1 0XM       0.399000
     16 H26          0.0870     0.1340    -2.1470 h1         1 0XM       0.069700
     17 H27         -1.9410    -0.9920    -2.1940 ha         1 0XM       0.116750
     18 H28         -4.0190    -1.7830    -1.0920 ha         1 0XM       0.112250
     19 H29         -4.5280    -1.1110     1.2540 ha         1 0XM       0.112000
     20 H30         -2.9460     0.3600     2.4970 ha         1 0XM       0.112250
     21 H31         -0.8660     1.1570     1.4090 ha         1 0XM       0.116750
     22 H32          1.4510     2.0190     0.8190 ha         1 0XM       0.116750
     23 H33          3.4700     1.2750     2.0400 ha         1 0XM       0.112250
     24 H34          4.4800    -0.9530     1.5620 ha         1 0XM       0.112000
     25 H35          3.4520    -2.4410    -0.1540 ha         1 0XM       0.112250
     26 H36          1.4260    -1.7100    -1.3870 ha         1 0XM       0.116750
     27 H2          -0.1780     2.5430    -0.5220 hn         1 0XM       0.399000
@<TRIPOS>BOND
     1     1     2 1   
     2     1    15 1   
     3     1    27 1   
     4     2     3 1   
     5     2     4 1   
     6     2    16 1   
     7     3    10 ar  
     8     3    14 ar  
     9     4     5 ar  
    10     4     9 ar  
    11     5     6 ar  
    12     5    17 1   
    13     6     7 ar  
    14     6    18 1   
    15     7     8 ar  
    16     7    19 1   
    17     8     9 ar  
    18     8    20 1   
    19     9    21 1   
    20    10    11 ar  
    21    10    22 1   
    22    11    12 ar  
    23    11    23 1   
    24    12    13 ar  
    25    12    24 1   
    26    13    14 ar  
    27    13    25 1   
    28    14    26 1   
@<TRIPOS>SUBSTRUCTURE
     1 0XM         1 TEMP              0 ****  ****    0 ROOT
