@<TRIPOS>MOLECULE
0XM
   27    28     1     0     0
SMALL
abcg2


@<TRIPOS>ATOM
      1 NAV         -0.0840     2.2130    -1.1290 n8         1 0XM      -0.990200
      2 CBF          0.0090     0.7640    -1.0540 c3         1 0XM       0.255100
      3 CBG          1.2610     0.3200    -0.3230 ca         1 0XM      -0.102300
      4 CBH         -1.2300     0.1120    -0.4630 ca         1 0XM      -0.102300
      5 CBI         -2.1250    -0.5740    -1.2750 ca         1 0XM      -0.099500
      6 CBJ         -3.2870    -1.1270    -0.7460 ca         1 0XM      -0.112500
      7 CBK         -3.5660    -0.9950     0.6060 ca         1 0XM      -0.108000
      8 CBL         -2.6760    -0.3100     1.4270 ca         1 0XM      -0.112500
      9 CBM         -1.5180     0.2370     0.8960 ca         1 0XM      -0.099500
     10 CBN          2.1770     1.2250     0.2000 ca         1 0XM      -0.099500
     11 CBO          3.3170     0.7790     0.8620 ca         1 0XM      -0.112500
     12 CBP          3.5620    -0.5790     0.9980 ca         1 0XM      -0.108000
     13 CBQ          2.6570    -1.4920     0.4680 ca         1 0XM      -0.112500
     14 CBR          1.5170    -1.0450    -0.1810 ca         1 0XM      -0.099500
     15 H12         -0.8550     2.4620    -1.7380 hn         1 0XM       0.399000
     16 H26          0.1010     0.4090    -2.0870 h1         1 0XM       0.069700
     17 H27         -1.9120    -0.6830    -2.3320 ha         1 0XM       0.116750
     18 H28         -3.9710    -1.6610    -1.3930 ha         1 0XM       0.112250
     19 H29         -4.4680    -1.4250     1.0210 ha         1 0XM       0.112000
     20 H30         -2.8850    -0.2070     2.4840 ha         1 0XM       0.112250
     21 H31         -0.8270     0.7580     1.5490 ha         1 0XM       0.116750
     22 H32          2.0090     2.2870     0.0840 ha         1 0XM       0.116750
     23 H33          4.0160     1.4990     1.2680 ha         1 0XM       0.112250
     24 H34          4.4510    -0.9260     1.5080 ha         1 0XM       0.112000
     25 H35          2.8410    -2.5550     0.5620 ha         1 0XM       0.112250
     26 H36          0.8150    -1.7660    -0.5830 ha         1 0XM       0.116750
     27 H2          -0.3160     2.5990    -0.2210 hn         1 0XM       0.399000
@<TRIPOS>BOND
     1     1     2 1   
     2     1    15 1   
     3     1    27 1   
     4     2     3 1   
     5     2     4 1   
     6     2    16 1   
     7     3    10 ar  
     8     3    14 ar  
     9     4     5 ar  
    10     4     9 ar  
    11     5     6 ar  
    12     5    17 1   
    13     6     7 ar  
    14     6    18 1   
    15     7     8 ar  
    16     7    19 1   
    17     8     9 ar  
    18     8    20 1   
    19     9    21 1   
    20    10    11 ar  
    21    10    22 1   
    22    11    12 ar  
    23    11    23 1   
    24    12    13 ar  
    25    12    24 1   
    26    13    14 ar  
    27    13    25 1   
    28    14    26 1   
@<TRIPOS>SUBSTRUCTURE
     1 0XM         1 TEMP              0 ****  ****    0 ROOT
