@<TRIPOS>MOLECULE
0XN
   27    28     1     0     0
SMALL
abcg2


@<TRIPOS>ATOM
      1 NAV         -0.0460     2.8000    -0.4490 n8         1 0XN      -0.986200
      2 CBF          0.0120     1.6080     0.3820 c3         1 0XN       0.263100
      3 CBG         -1.2320     0.7600     0.2050 ca         1 0XN      -0.109800
      4 CBH          1.2530     0.7450     0.2080 ca         1 0XN      -0.109800
      5 CBI          1.7430     0.4170    -1.0540 ca         1 0XN      -0.075250
      6 CBJ          2.8670    -0.3810    -1.2040 ca         1 0XN      -0.149000
      7 CBK          3.5030    -0.8490    -0.0700 ca         1 0XN       0.173500
      8 CBL          3.0520    -0.5460     1.1980 ca         1 0XN      -0.149000
      9 CBM          1.9230     0.2540     1.3240 ca         1 0XN      -0.075250
     10 CBN         -1.8710     0.2240     1.3190 ca         1 0XN      -0.075250
     11 CBO         -2.9980    -0.5770     1.1940 ca         1 0XN      -0.149000
     12 CBP         -3.4810    -0.8370    -0.0720 ca         1 0XN       0.173500
     13 CBQ         -2.8760    -0.3270    -1.2040 ca         1 0XN      -0.149000
     14 CBR         -1.7500     0.4710    -1.0540 ca         1 0XN      -0.075250
     15 F01          4.5970    -1.6180    -0.2090 f          1 0XN      -0.179000
     16 F02         -4.5750    -1.6060    -0.2090 f          1 0XN      -0.179000
     17 H12          0.7690     3.3730    -0.2640 hn         1 0XN       0.399000
     18 H27          0.0130     1.9570     1.4180 h1         1 0XN       0.068700
     19 H28          1.2550     0.7840    -1.9480 ha         1 0XN       0.113000
     20 H29          3.2440    -0.6280    -2.1880 ha         1 0XN       0.132500
     21 H30          3.5710    -0.9170     2.0720 ha         1 0XN       0.132500
     22 H31          1.5640     0.4990     2.3160 ha         1 0XN       0.113000
     23 H32         -1.4890     0.4360     2.3110 ha         1 0XN       0.113000
     24 H33         -3.4910    -0.9820     2.0670 ha         1 0XN       0.132500
     25 H34         -3.2750    -0.5420    -2.1870 ha         1 0XN       0.132500
     26 H35         -1.2840     0.8610    -1.9500 ha         1 0XN       0.113000
     27 H2           0.0030     2.5710    -1.4340 hn         1 0XN       0.399000
@<TRIPOS>BOND
     1     1     2 1   
     2     1    17 1   
     3     1    27 1   
     4     2     3 1   
     5     2     4 1   
     6     2    18 1   
     7     3    10 ar  
     8     3    14 ar  
     9     4     5 ar  
    10     4     9 ar  
    11     5     6 ar  
    12     5    19 1   
    13     6     7 ar  
    14     6    20 1   
    15     7     8 ar  
    16     7    15 1   
    17     8     9 ar  
    18     8    21 1   
    19     9    22 1   
    20    10    11 ar  
    21    10    23 1   
    22    11    12 ar  
    23    11    24 1   
    24    12    13 ar  
    25    12    16 1   
    26    13    14 ar  
    27    13    25 1   
    28    14    26 1   
@<TRIPOS>SUBSTRUCTURE
     1 0XN         1 TEMP              0 ****  ****    0 ROOT
