@<TRIPOS>MOLECULE
0XN
   27    28     1     0     0
SMALL
No Charge or Current Charge


@<TRIPOS>ATOM
      1 NAV          0.0710     2.7860    -0.3490 n8         1 0XN      -0.986200
      2 CBF         -0.0100     1.5590     0.4600 c3         1 0XN       0.263100
      3 CBG         -1.2800     0.7450     0.1860 ca         1 0XN      -0.109800
      4 CBH          1.2550     0.7230     0.2810 ca         1 0XN      -0.109800
      5 CBI          1.5280     0.0710    -0.9420 ca         1 0XN      -0.075250
      6 CBJ          2.6940    -0.7010    -1.0910 ca         1 0XN      -0.149000
      7 CBK          3.5930    -0.8240    -0.0210 ca         1 0XN       0.173500
      8 CBL          3.3330    -0.1810     1.1980 ca         1 0XN      -0.149000
      9 CBM          2.1670     0.5910     1.3500 ca         1 0XN      -0.075250
     10 CBN         -1.8500    -0.0020     1.2390 ca         1 0XN      -0.075250
     11 CBO         -3.0060    -0.7720     1.0250 ca         1 0XN      -0.149000
     12 CBP         -3.5990    -0.8050    -0.2450 ca         1 0XN       0.173500
     13 CBQ         -3.0430    -0.0720    -1.3030 ca         1 0XN      -0.149000
     14 CBR         -1.8860     0.7000    -1.0920 ca         1 0XN      -0.075250
     15 F01          4.7130    -1.5650    -0.1650 f          1 0XN      -0.179000
     16 F02         -4.7100    -1.5460    -0.4500 f          1 0XN      -0.179000
     17 H12          0.9460     3.2650    -0.1140 hn         1 0XN       0.399000
     18 H27         -0.0570     1.8830     1.5110 h1         1 0XN       0.068700
     19 H28          0.8370     0.1570    -1.7780 ha         1 0XN       0.113000
     20 H29          2.9020    -1.2030    -2.0320 ha         1 0XN       0.132500
     21 H30          4.0340    -0.2810     2.0230 ha         1 0XN       0.132500
     22 H31          1.9740     1.0850     2.3000 ha         1 0XN       0.113000
     23 H32         -1.3930     0.0130     2.2270 ha         1 0XN       0.113000
     24 H33         -3.4410    -1.3450     1.8410 ha         1 0XN       0.132500
     25 H34         -3.5070    -0.1040    -2.2860 ha         1 0XN       0.132500
     26 H35         -1.4670     1.2570    -1.9260 ha         1 0XN       0.113000
     27 H2           0.2050     2.5140    -1.3270 hn         1 0XN       0.399000
@<TRIPOS>BOND
     1     1     2 1   
     2     1    17 1   
     3     1    27 1   
     4     2     3 1   
     5     2     4 1   
     6     2    18 1   
     7     3    10 ar  
     8     3    14 ar  
     9     4     5 ar  
    10     4     9 ar  
    11     5     6 ar  
    12     5    19 1   
    13     6     7 ar  
    14     6    20 1   
    15     7     8 ar  
    16     7    15 1   
    17     8     9 ar  
    18     8    21 1   
    19     9    22 1   
    20    10    11 ar  
    21    10    23 1   
    22    11    12 ar  
    23    11    24 1   
    24    12    13 ar  
    25    12    16 1   
    26    13    14 ar  
    27    13    25 1   
    28    14    26 1   
@<TRIPOS>SUBSTRUCTURE
     1 0XN         1 TEMP              0 ****  ****    0 ROOT
