@<TRIPOS>MOLECULE
0XO
   26    25     1     0     0
SMALL
No Charge or Current Charge


@<TRIPOS>ATOM
      1 CAD         -1.3510     0.4660     0.0940 c3         1 0XO       0.037200
      2 CAE         -2.5730    -0.5520    -0.1090 c          1 0XO       0.729000
      3 CAZ         -0.0310    -0.3490    -0.0970 c3         1 0XO      -0.096400
      4 NAC         -1.3430     1.6030    -0.8940 n8         1 0XO      -0.985200
      5 OAG         -2.9780    -1.2070     0.8450 o          1 0XO      -0.729000
      6 CBA         -1.4250     1.0900     1.5190 c3         1 0XO      -0.045100
      7 C02          3.8760     0.2920     0.0610 c3         1 0XO       0.144800
      8 N02          5.0420    -0.5800    -0.1680 n8         1 0XO      -0.996200
      9 C3           2.5480    -0.4690    -0.1370 c3         1 0XO      -0.079400
     10 C4           1.3060     0.4210     0.0970 c3         1 0XO      -0.077400
     11 H7          -0.0430    -1.1940     0.6030 hc         1 0XO       0.044700
     12 H8          -0.0360    -0.7930    -1.1000 hc         1 0XO       0.044700
     13 H9          -0.4310     1.6200    -1.3600 hn         1 0XO       0.374500
     14 H14         -0.6740     1.8770     1.6570 hc         1 0XO       0.015367
     15 H15         -2.4110     1.5400     1.6930 hc         1 0XO       0.015367
     16 H16         -1.2590     0.3300     2.2920 hc         1 0XO       0.015367
     17 H41          3.9280     0.6850     1.0860 h1         1 0XO       0.021700
     18 H42          3.9270     1.1370    -0.6390 h1         1 0XO       0.021700
     19 H43          5.0400    -0.8860    -1.1480 hn         1 0XO       0.381000
     20 H44          2.5120    -0.8750    -1.1560 hc         1 0XO       0.042700
     21 H45          2.5150    -1.3220     0.5520 hc         1 0XO       0.042700
     22 H46          1.3510     1.2740    -0.5910 hc         1 0XO       0.025700
     23 H47          1.3560     0.8240     1.1150 hc         1 0XO       0.025700
     24 OXT         -3.1330    -0.5680    -1.2000 o          1 0XO      -0.729000
     25 H2          -1.9950     1.3490    -1.6470 hn         1 0XO       0.374500
     26 H1           5.8990    -0.0180    -0.0910 hn         1 0XO       0.381000
@<TRIPOS>BOND
     1     1     2 1   
     2     1     3 1   
     3     1     4 1   
     4     1     6 1   
     5     2     5 1   
     6     2    24 1   
     7     3    10 1   
     8     3    11 1   
     9     3    12 1   
    10     4    13 1   
    11     4    25 1   
    12     6    14 1   
    13     6    15 1   
    14     6    16 1   
    15     7     8 1   
    16     7     9 1   
    17     7    17 1   
    18     7    18 1   
    19     8    19 1   
    20     8    26 1   
    21     9    10 1   
    22     9    20 1   
    23     9    21 1   
    24    10    22 1   
    25    10    23 1   
@<TRIPOS>SUBSTRUCTURE
     1 0XO         1 TEMP              0 ****  ****    0 ROOT
