@<TRIPOS>MOLECULE
0XO
   26    25     1     0     0
SMALL
bcc


@<TRIPOS>ATOM
      1 CAD         -1.3250     0.4650     0.0930 c3         1 0XO       0.037200
      2 CAE         -2.4990    -0.5280    -0.1260 c          1 0XO       0.939600
      3 CAZ         -0.0320    -0.3670    -0.0790 c3         1 0XO      -0.096400
      4 NAC         -1.4420     1.5520    -0.8760 n8         1 0XO      -0.874800
      5 OAG         -2.8410    -1.2220     0.8520 o          1 0XO      -0.834300
      6 CBA         -1.3880     1.0750     1.4910 c3         1 0XO      -0.045100
      7 C02          3.8060     0.2930    -0.0090 c3         1 0XO       0.144800
      8 N02          4.9550    -0.5860    -0.1760 n8         1 0XO      -0.885800
      9 C3           2.5020    -0.4800    -0.1220 c3         1 0XO      -0.079400
     10 C4           1.2750     0.4020     0.0770 c3         1 0XO      -0.077400
     11 H7          -0.0460    -1.1920     0.6410 hc         1 0XO       0.044700
     12 H8          -0.0500    -0.8290    -1.0730 hc         1 0XO       0.044700
     13 H9          -0.6030     2.1190    -0.8570 hn         1 0XO       0.319300
     14 H14         -0.6280     1.8500     1.6200 hc         1 0XO       0.015367
     15 H15         -2.3580     1.5430     1.6680 hc         1 0XO       0.015367
     16 H16         -1.2300     0.3240     2.2630 hc         1 0XO       0.015367
     17 H41          3.8650     0.7490     0.9840 h1         1 0XO       0.021700
     18 H42          3.7850     1.1270    -0.7260 h1         1 0XO       0.021700
     19 H43          4.9560    -0.9530    -1.1200 hn         1 0XO       0.325800
     20 H44          2.4510    -0.9590    -1.1070 hc         1 0XO       0.042700
     21 H45          2.5010    -1.2910     0.6140 hc         1 0XO       0.042700
     22 H46          1.3130     1.2250    -0.6450 hc         1 0XO       0.025700
     23 H47          1.3250     0.8620     1.0680 hc         1 0XO       0.025700
     24 OXT         -2.9780    -0.5930    -1.2770 o          1 0XO      -0.834300
     25 H2          -1.5040     1.1540    -1.8040 hn         1 0XO       0.319300
     26 H1           5.8070    -0.0440    -0.0980 hn         1 0XO       0.325800
@<TRIPOS>BOND
     1     1     2 1   
     2     1     3 1   
     3     1     4 1   
     4     1     6 1   
     5     2     5 1   
     6     2    24 1   
     7     3    10 1   
     8     3    11 1   
     9     3    12 1   
    10     4    13 1   
    11     4    25 1   
    12     6    14 1   
    13     6    15 1   
    14     6    16 1   
    15     7     8 1   
    16     7     9 1   
    17     7    17 1   
    18     7    18 1   
    19     8    19 1   
    20     8    26 1   
    21     9    10 1   
    22     9    20 1   
    23     9    21 1   
    24    10    22 1   
    25    10    23 1   
@<TRIPOS>SUBSTRUCTURE
     1 0XO         1 TEMP              0 ****  ****    0 ROOT
