@<TRIPOS>MOLECULE
0XP
   37    39     1     0     0
SMALL
abcg2


@<TRIPOS>ATOM
      1 C1           0.9290     1.7680     1.6030 ca         1 0XP      -0.219000
      2 C2           2.2690     2.0520     1.7840 ca         1 0XP       0.392900
      3 N3           3.2680     1.5180     1.0910 nb         1 0XP      -0.687000
      4 C4           2.9470     0.6390     0.1570 ca         1 0XP       0.515900
      5 C5           1.6330     0.2700    -0.1220 ca         1 0XP      -0.284000
      6 C6           0.6020     0.8420     0.6100 ca         1 0XP       0.046000
      7 N7          -0.6920     0.4430     0.2930 ns         1 0XP      -0.133000
      8 C8          -1.8580     0.8240     0.8630 c          1 0XP       0.632700
      9 O9          -1.9900     1.6000     1.7810 o          1 0XP      -0.529100
     10 C10         -3.0580     0.1700     0.2310 ca         1 0XP      -0.140600
     11 C11         -3.7290     0.7880    -0.8170 ca         1 0XP       0.143500
     12 C12         -4.8690     0.2360    -1.3700 ca         1 0XP      -0.073000
     13 C13         -5.3410    -0.9650    -0.8510 ca         1 0XP       0.023000
     14 C14         -4.6940    -1.6100     0.1980 ca         1 0XP      -0.073000
     15 C15         -3.5580    -1.0270     0.7270 ca         1 0XP       0.143500
     16 CL1         -2.7330    -1.8060     2.0230 cl         1 0XP      -0.154000
     17 C17         -6.5170    -1.5520    -1.4110 cg         1 0XP       0.310000
     18 N18         -7.4640    -2.0260    -1.8610 n1         1 0XP      -0.419000
     19 CL2         -3.1190     2.2710    -1.4440 cl         1 0XP      -0.154000
     20 N20          3.9460     0.0510    -0.6110 ns         1 0XP      -0.328900
     21 C21          5.3040     0.0960    -0.4520 c          1 0XP       0.647100
     22 O22          5.8760     0.6840     0.4390 o          1 0XP      -0.513100
     23 C23          6.0200    -0.6870    -1.5020 cx         1 0XP      -0.279700
     24 C25          7.5100    -0.4780    -1.6560 cx         1 0XP      -0.114400
     25 C26          7.0100    -1.7300    -1.0710 cx         1 0XP       0.175300
     26 F1           7.1780    -1.9430     0.2680 f          1 0XP      -0.216000
     27 H1           0.1930     2.2580     2.2170 ha         1 0XP       0.158000
     28 H2           2.5540     2.7700     2.5450 h4         1 0XP       0.028100
     29 H3           1.4200    -0.4560    -0.8980 ha         1 0XP       0.116000
     30 H4          -0.7640    -0.2250    -0.4620 hn         1 0XP       0.160000
     31 H5          -5.3820     0.7270    -2.1850 ha         1 0XP       0.151000
     32 H6          -5.0670    -2.5470     0.5860 ha         1 0XP       0.151000
     33 H7           3.6110    -0.5270    -1.3670 hn         1 0XP       0.150000
     34 H24          5.4560    -0.9270    -2.3970 hc         1 0XP       0.090700
     35 H8           7.9200    -0.5060    -2.6570 hc         1 0XP       0.098700
     36 H9           7.9620     0.2480    -0.9920 hc         1 0XP       0.098700
     37 H27          7.0500    -2.6540    -1.6340 h1         1 0XP       0.088700
@<TRIPOS>BOND
     1     1     2 ar  
     2     1     6 ar  
     3     1    27 1   
     4     2     3 ar  
     5     2    28 1   
     6     3     4 ar  
     7     4     5 ar  
     8     4    20 1   
     9     5     6 ar  
    10     5    29 1   
    11     6     7 1   
    12     7     8 1   
    13     7    30 1   
    14     8     9 2   
    15     8    10 1   
    16    10    11 ar  
    17    10    15 ar  
    18    11    12 ar  
    19    11    19 1   
    20    12    13 ar  
    21    12    31 1   
    22    13    14 ar  
    23    13    17 1   
    24    14    15 ar  
    25    14    32 1   
    26    15    16 1   
    27    17    18 3   
    28    20    21 1   
    29    20    33 1   
    30    21    22 2   
    31    21    23 1   
    32    23    24 1   
    33    23    25 1   
    34    23    34 1   
    35    24    25 1   
    36    24    35 1   
    37    24    36 1   
    38    25    26 1   
    39    25    37 1   
@<TRIPOS>SUBSTRUCTURE
     1 0XP         1 TEMP              0 ****  ****    0 ROOT
