@<TRIPOS>MOLECULE
0XP
   37    39     1     0     0
SMALL
No Charge or Current Charge


@<TRIPOS>ATOM
      1 C1           1.0250     1.9500     1.3960 ca         1 0XP      -0.219000
      2 C2           2.3840     2.2520     1.5780 ca         1 0XP       0.392900
      3 N3           3.3740     1.6150     0.9180 nb         1 0XP      -0.687000
      4 C4           3.0220     0.6640     0.0340 ca         1 0XP       0.515900
      5 C5           1.6930     0.2820    -0.1910 ca         1 0XP      -0.284000
      6 C6           0.6580     0.9340     0.4940 ca         1 0XP       0.046000
      7 N7          -0.6800     0.5350     0.2340 ns         1 0XP      -0.133000
      8 C8          -1.8910     0.9110     0.7990 c          1 0XP       0.632700
      9 O9          -1.9870     1.7100     1.7230 o          1 0XP      -0.529100
     10 C10         -3.1030     0.2240     0.2250 ca         1 0XP      -0.140600
     11 C11         -4.2230     0.9880    -0.1820 ca         1 0XP       0.143500
     12 C12         -5.3600     0.3610    -0.7180 ca         1 0XP      -0.073000
     13 C13         -5.4070    -1.0360    -0.8510 ca         1 0XP       0.023000
     14 C14         -4.3040    -1.8050    -0.4410 ca         1 0XP      -0.073000
     15 C15         -3.1610    -1.1860     0.0930 ca         1 0XP       0.143500
     16 Cl1         -1.8590    -2.2400     0.6510 cl         1 0XP      -0.154000
     17 C17         -6.5730    -1.6750    -1.3970 cg         1 0XP       0.310000
     18 N18         -7.5150    -2.1990    -1.8460 n1         1 0XP      -0.419000
     19 Cl2         -4.2240     2.7520    -0.1040 cl         1 0XP      -0.154000
     20 N20          4.0690    -0.0180    -0.5960 ns         1 0XP      -0.328900
     21 C21          5.3500     0.3820    -0.9010 c          1 0XP       0.647100
     22 O22          5.7950     1.5070    -0.7150 o          1 0XP      -0.513100
     23 C23          6.1690    -0.7000    -1.5520 cx         1 0XP      -0.279700
     24 C25          7.6400    -0.8320    -1.2050 cx         1 0XP      -0.114400
     25 C26          6.6480    -1.8440    -0.6900 cx         1 0XP       0.175300
     26 F1           6.3500    -1.8450     0.6400 f          1 0XP      -0.216000
     27 H1           0.2940     2.5140     1.9630 ha         1 0XP       0.158000
     28 H2           2.6890     3.0280     2.2780 h4         1 0XP       0.028100
     29 H3           1.4750    -0.5160    -0.8950 ha         1 0XP       0.116000
     30 H4          -0.7640    -0.1550    -0.5000 hn         1 0XP       0.160000
     31 H5          -6.2040     0.9690    -1.0360 ha         1 0XP       0.151000
     32 H6          -4.3330    -2.8890    -0.5260 ha         1 0XP       0.151000
     33 H7           3.8380    -0.9620    -0.8720 hn         1 0XP       0.150000
     34 H24          5.8820    -0.9420    -2.5720 hc         1 0XP       0.090700
     35 H8           8.3240    -1.1550    -1.9870 hc         1 0XP       0.098700
     36 H9           8.0700    -0.1400    -0.4840 hc         1 0XP       0.098700
     37 H27          6.6600    -2.8510    -1.1080 h1         1 0XP       0.088700
@<TRIPOS>BOND
     1     1     2 ar  
     2     1     6 ar  
     3     1    27 1   
     4     2     3 ar  
     5     2    28 1   
     6     3     4 ar  
     7     4     5 ar  
     8     4    20 1   
     9     5     6 ar  
    10     5    29 1   
    11     6     7 1   
    12     7     8 1   
    13     7    30 1   
    14     8     9 2   
    15     8    10 1   
    16    10    11 ar  
    17    10    15 ar  
    18    11    12 ar  
    19    11    19 1   
    20    12    13 ar  
    21    12    31 1   
    22    13    14 ar  
    23    13    17 1   
    24    14    15 ar  
    25    14    32 1   
    26    15    16 1   
    27    17    18 3   
    28    20    21 1   
    29    20    33 1   
    30    21    22 2   
    31    21    23 1   
    32    23    24 1   
    33    23    25 1   
    34    23    34 1   
    35    24    25 1   
    36    24    35 1   
    37    24    36 1   
    38    25    26 1   
    39    25    37 1   
@<TRIPOS>SUBSTRUCTURE
     1 0XP         1 TEMP              0 ****  ****    0 ROOT
