@<TRIPOS>MOLECULE
0XQ
   32    31     1     0     0
SMALL
abcg2


@<TRIPOS>ATOM
      1 CAD         -2.3840     0.4010     0.0620 c3         1 0XQ       0.030200
      2 CAE         -3.5410    -0.6370    -0.0730 c          1 0XQ       0.695000
      3 CAZ         -1.0610    -0.3730    -0.0730 c3         1 0XQ      -0.046400
      4 NAC         -2.4150     1.4460    -0.9570 n8         1 0XQ      -0.998200
      5 OAG         -3.6120    -1.5070     0.8210 o          1 0XQ      -0.733000
      6 CBA         -2.4930     1.0730     1.4310 c3         1 0XQ      -0.056100
      7 C01          4.0090    -0.4610    -0.1190 c3         1 0XQ      -0.079400
      8 C02          5.2960     0.3370     0.0240 c3         1 0XQ       0.145800
      9 N02          6.4640    -0.5210    -0.1220 n8         1 0XQ      -0.996200
     10 C3           2.7590     0.3930     0.0490 c3         1 0XQ      -0.074400
     11 C05          0.2130     0.4470     0.0800 c3         1 0XQ      -0.071400
     12 C06          1.4680    -0.4000    -0.1040 c3         1 0XQ      -0.077400
     13 H7          -1.0590    -1.1830     0.6600 hc         1 0XQ       0.038200
     14 H8          -2.4820     1.0010    -1.8650 hn         1 0XQ       0.381500
     15 H13         -1.7340     1.8470     1.5560 hc         1 0XQ       0.017367
     16 H14         -3.4670     1.5540     1.5530 hc         1 0XQ       0.017367
     17 H15         -2.3790     0.3490     2.2360 hc         1 0XQ       0.017367
     18 H41          3.9900    -0.9410    -1.1050 hc         1 0XQ       0.042700
     19 H42          4.0080    -1.2710     0.6180 hc         1 0XQ       0.042700
     20 H43          5.2760     1.1730    -0.6910 h1         1 0XQ       0.024200
     21 H44          5.3260     0.7890     1.0200 h1         1 0XQ       0.024200
     22 H45          6.4910    -0.8840    -1.0680 hn         1 0XQ       0.384000
     23 H46          2.7760     0.8710     1.0350 hc         1 0XQ       0.031700
     24 H47          2.7710     1.2080    -0.6820 hc         1 0XQ       0.031700
     25 H48          0.2150     1.2670    -0.6420 hc         1 0XQ       0.035700
     26 H49          1.4480    -0.8710    -1.0930 hc         1 0XQ       0.032200
     27 H50          1.4610    -1.2230     0.6200 hc         1 0XQ       0.032200
     28 H51         -1.0470    -0.8590    -1.0580 hc         1 0XQ       0.038200
     29 H34          0.2430     0.9120     1.0710 hc         1 0XQ       0.035700
     30 OXT         -4.3000    -0.5360    -1.0580 o          1 0XQ      -0.733000
     31 H2          -3.2880     1.9540    -0.8700 hn         1 0XQ       0.381500
     32 H1           7.3040     0.0350    -0.0240 hn         1 0XQ       0.384000
@<TRIPOS>BOND
     1     1     2 1   
     2     1     3 1   
     3     1     4 1   
     4     1     6 1   
     5     2     5 1   
     6     2    30 1   
     7     3    11 1   
     8     3    13 1   
     9     3    28 1   
    10     4    14 1   
    11     4    31 1   
    12     6    15 1   
    13     6    16 1   
    14     6    17 1   
    15     7     8 1   
    16     7    10 1   
    17     7    18 1   
    18     7    19 1   
    19     8     9 1   
    20     8    20 1   
    21     8    21 1   
    22     9    22 1   
    23     9    32 1   
    24    10    12 1   
    25    10    23 1   
    26    10    24 1   
    27    11    12 1   
    28    11    25 1   
    29    11    29 1   
    30    12    26 1   
    31    12    27 1   
@<TRIPOS>SUBSTRUCTURE
     1 0XQ         1 TEMP              0 ****  ****    0 ROOT
