@<TRIPOS>MOLECULE
0XQ
   32    31     1     0     0
SMALL
No Charge or Current Charge


@<TRIPOS>ATOM
      1 CAD         -2.4390     0.3960     0.0620 c3         1 0XQ       0.030200
      2 CAE         -3.6150    -0.6830    -0.0850 c          1 0XQ       0.695000
      3 CAZ         -1.0910    -0.3870    -0.0840 c3         1 0XQ      -0.046400
      4 NAC         -2.4850     1.4880    -0.9790 n8         1 0XQ      -0.998200
      5 OAG         -4.0670    -1.2250     0.9170 o          1 0XQ      -0.733000
      6 CBA         -2.5330     1.0920     1.4530 c3         1 0XQ      -0.056100
      7 C01          4.0670    -0.4750    -0.1290 c3         1 0XQ      -0.079400
      8 C02          5.3680     0.3360     0.0490 c3         1 0XQ       0.145800
      9 N02          6.5630    -0.5050    -0.1440 n8         1 0XQ      -0.996200
     10 C3           2.7960     0.3800     0.0680 c3         1 0XQ      -0.074400
     11 C05          0.2180     0.4310     0.0890 c3         1 0XQ      -0.071400
     12 C06          1.4900    -0.4250    -0.1090 c3         1 0XQ      -0.077400
     13 H7          -1.0840    -1.2030     0.6490 hc         1 0XQ       0.038200
     14 H8          -2.6830     1.0420    -1.8830 hn         1 0XQ       0.381500
     15 H13         -1.8090     1.9100     1.5460 hc         1 0XQ       0.017367
     16 H14         -3.5330     1.5160     1.6070 hc         1 0XQ       0.017367
     17 H15         -2.3380     0.3800     2.2640 hc         1 0XQ       0.017367
     18 H41          4.0500    -0.9170    -1.1330 hc         1 0XQ       0.042700
     19 H42          4.0570    -1.3040     0.5890 hc         1 0XQ       0.042700
     20 H43          5.3950     1.1580    -0.6800 h1         1 0XQ       0.024200
     21 H44          5.4010     0.7660     1.0600 h1         1 0XQ       0.024200
     22 H45          6.5770    -0.8440    -1.1130 hn         1 0XQ       0.384000
     23 H46          2.8130     0.8230     1.0720 hc         1 0XQ       0.031700
     24 H47          2.8070     1.2110    -0.6480 hc         1 0XQ       0.031700
     25 H48          0.2360     1.2600    -0.6280 hc         1 0XQ       0.035700
     26 H49          1.4730    -0.8670    -1.1130 hc         1 0XQ       0.032200
     27 H50          1.4800    -1.2560     0.6080 hc         1 0XQ       0.032200
     28 H51         -1.0730    -0.8690    -1.0690 hc         1 0XQ       0.038200
     29 H34          0.2480     0.8720     1.0930 hc         1 0XQ       0.035700
     30 OXT         -4.1080    -0.8510    -1.1950 o          1 0XQ      -0.733000
     31 H2          -3.3260     2.0540    -0.8210 hn         1 0XQ       0.381500
     32 H1           7.4010     0.0870    -0.0820 hn         1 0XQ       0.384000
@<TRIPOS>BOND
     1     1     2 1   
     2     1     3 1   
     3     1     4 1   
     4     1     6 1   
     5     2     5 1   
     6     2    30 1   
     7     3    11 1   
     8     3    13 1   
     9     3    28 1   
    10     4    14 1   
    11     4    31 1   
    12     6    15 1   
    13     6    16 1   
    14     6    17 1   
    15     7     8 1   
    16     7    10 1   
    17     7    18 1   
    18     7    19 1   
    19     8     9 1   
    20     8    20 1   
    21     8    21 1   
    22     9    22 1   
    23     9    32 1   
    24    10    12 1   
    25    10    23 1   
    26    10    24 1   
    27    11    12 1   
    28    11    25 1   
    29    11    29 1   
    30    12    26 1   
    31    12    27 1   
@<TRIPOS>SUBSTRUCTURE
     1 0XQ         1 TEMP              0 ****  ****    0 ROOT
