@<TRIPOS>MOLECULE
0XR
   27    27     1     0     0
SMALL
No Charge or Current Charge


@<TRIPOS>ATOM
      1 C5           6.1350     1.0720    -0.0030 c3         1 0XR      -0.097100
      2 C4           5.2140    -0.1580    -0.0340 c3         1 0XR       0.166600
      3 O2           3.8570     0.3170    -0.0110 os         1 0XR      -0.446100
      4 C3           2.8530    -0.6120    -0.0330 c          1 0XR       0.597300
      5 O1           3.0240    -1.8220    -0.0700 o          1 0XR      -0.499000
      6 C2           1.5210     0.0450    -0.0050 ce         1 0XR      -0.279200
      7 C1           0.3270    -0.6190    -0.0180 cf         1 0XR      -0.070200
      8 C11         -1.0480    -0.0770     0.0070 ca         1 0XR      -0.081800
      9 C10         -2.1410    -0.9690    -0.0140 ca         1 0XR      -0.133000
     10 C6          -1.2970     1.3130     0.0510 ca         1 0XR      -0.074000
     11 C7          -2.6150     1.8020     0.0740 ca         1 0XR      -0.131000
     12 C8          -3.6940     0.9070     0.0530 ca         1 0XR       0.141100
     13 O4          -4.9760     1.3720     0.0750 oh         1 0XR      -0.527100
     14 C9          -3.4610    -0.4820     0.0090 ca         1 0XR       0.035100
     15 O3          -4.5190    -1.3540    -0.0110 oh         1 0XR      -0.557100
     16 H1           5.9530     1.7130    -0.8740 hc         1 0XR       0.046033
     17 H2           5.9640     1.6600     0.9070 hc         1 0XR       0.046033
     18 H3           7.1850     0.7600    -0.0190 hc         1 0XR       0.046033
     19 H4           5.4110    -0.7400    -0.9450 h1         1 0XR       0.047700
     20 H5           5.4220    -0.7930     0.8380 h1         1 0XR       0.047700
     21 H6           1.5470     1.1300     0.0270 ha         1 0XR       0.198000
     22 H8           0.3710    -1.7110    -0.0510 ha         1 0XR       0.191000
     23 H10         -1.9630    -2.0410    -0.0470 ha         1 0XR       0.117000
     24 H11         -0.4770     2.0260     0.0680 ha         1 0XR       0.121000
     25 H12         -2.7990     2.8720     0.1080 ha         1 0XR       0.134000
     26 H13         -5.5490     0.5730     0.0540 ho         1 0XR       0.485000
     27 H14         -4.1750    -2.2750    -0.0410 ho         1 0XR       0.476000
@<TRIPOS>BOND
     1     1     2 1   
     2     1    16 1   
     3     1    17 1   
     4     1    18 1   
     5     2     3 1   
     6     2    19 1   
     7     2    20 1   
     8     3     4 1   
     9     4     5 2   
    10     4     6 1   
    11     6     7 2   
    12     6    21 1   
    13     7     8 1   
    14     7    22 1   
    15     8     9 ar  
    16     8    10 ar  
    17     9    14 ar  
    18     9    23 1   
    19    10    11 ar  
    20    10    24 1   
    21    11    12 ar  
    22    11    25 1   
    23    12    13 1   
    24    12    14 ar  
    25    13    26 1   
    26    14    15 1   
    27    15    27 1   
@<TRIPOS>SUBSTRUCTURE
     1 0XR         1 TEMP              0 ****  ****    0 ROOT
