@<TRIPOS>MOLECULE
0XR
   27    27     1     0     0
SMALL
bcc


@<TRIPOS>ATOM
      1 C5           6.0900     1.0020     0.0420 c3         1 0XR      -0.097100
      2 C4           5.1410    -0.1690    -0.0340 c3         1 0XR       0.143400
      3 O2           3.8030     0.3430    -0.0230 os         1 0XR      -0.422900
      4 C3           2.8030    -0.5310    -0.0620 c          1 0XR       0.646300
      5 O1           2.9650    -1.7290    -0.1110 o          1 0XR      -0.548000
      6 C2           1.5020     0.1510    -0.0370 ce         1 0XR      -0.229200
      7 C1           0.3650    -0.5550    -0.0520 cf         1 0XR      -0.020200
      8 C11         -0.9920    -0.0370    -0.0240 ca         1 0XR      -0.081800
      9 C10         -2.0530    -0.9500    -0.0170 ca         1 0XR      -0.151000
     10 C6          -1.2960     1.3240     0.0020 ca         1 0XR      -0.092000
     11 C7          -2.6080     1.7570     0.0380 ca         1 0XR      -0.149000
     12 C8          -3.6550     0.8450     0.0500 ca         1 0XR       0.141100
     13 O4          -4.9190     1.2970     0.0860 oh         1 0XR      -0.488100
     14 C9          -3.3650    -0.5240     0.0190 ca         1 0XR       0.035100
     15 O3          -4.4360    -1.3550     0.0290 oh         1 0XR      -0.518100
     16 H1           5.9730     1.6700    -0.8110 hc         1 0XR       0.046033
     17 H2           5.9490     1.5760     0.9570 hc         1 0XR       0.046033
     18 H3           7.1140     0.6300     0.0360 hc         1 0XR       0.046033
     19 H4           5.3080    -0.7460    -0.9460 h1         1 0XR       0.047700
     20 H5           5.2870    -0.8420     0.8140 h1         1 0XR       0.047700
     21 H6           1.5100     1.2330    -0.0030 ha         1 0XR       0.148000
     22 H8           0.4510    -1.6370    -0.0840 ha         1 0XR       0.141000
     23 H10         -1.8390    -2.0130    -0.0430 ha         1 0XR       0.135000
     24 H11         -0.5090     2.0660    -0.0030 ha         1 0XR       0.139000
     25 H12         -2.8330     2.8150     0.0620 ha         1 0XR       0.152000
     26 H13         -5.5350     0.5620     0.1710 ho         1 0XR       0.446000
     27 H14         -4.1520    -2.2730     0.0360 ho         1 0XR       0.437000
@<TRIPOS>BOND
     1     1     2 1   
     2     1    16 1   
     3     1    17 1   
     4     1    18 1   
     5     2     3 1   
     6     2    19 1   
     7     2    20 1   
     8     3     4 1   
     9     4     5 2   
    10     4     6 1   
    11     6     7 2   
    12     6    21 1   
    13     7     8 1   
    14     7    22 1   
    15     8     9 ar  
    16     8    10 ar  
    17     9    14 ar  
    18     9    23 1   
    19    10    11 ar  
    20    10    24 1   
    21    11    12 ar  
    22    11    25 1   
    23    12    13 1   
    24    12    14 ar  
    25    13    26 1   
    26    14    15 1   
    27    15    27 1   
@<TRIPOS>SUBSTRUCTURE
     1 0XR         1 TEMP              0 ****  ****    0 ROOT
