@<TRIPOS>MOLECULE
0XT
   25    26     1     0     0
SMALL
bcc


@<TRIPOS>ATOM
      1 C5           1.7240     1.1290     0.0010 ca         1 0XT       0.270300
      2 C6          -0.3270    -0.6600    -0.0130 ca         1 0XT       0.689000
      3 C8           2.8880     2.0640     0.0060 c3         1 0XT      -0.126400
      4 C10         -0.5170     0.7270     0.0000 ca         1 0XT      -0.012000
      5 C11         -2.5580    -0.9890    -0.0180 ca         1 0XT       0.973900
      6 C12         -1.8740     1.1860     0.0080 ca         1 0XT       0.735900
      7 N4           0.9320    -1.1510    -0.0170 nb         1 0XT      -0.750000
      8 N14         -3.6040    -1.8310    -0.0580 nv         1 0XT      -0.952500
      9 N13         -2.8700     0.3220    -0.0010 nb         1 0XT      -0.883000
     10 N9          -1.3450    -1.5280    -0.0210 nb         1 0XT      -0.808000
     11 C2           1.9100    -0.2960    -0.0110 ca         1 0XT       0.591300
     12 O1           3.1660    -0.7080    -0.0150 os         1 0XT      -0.428100
     13 C3           3.4150    -2.1110    -0.0260 c3         1 0XT       0.131700
     14 N7           0.5080     1.5940     0.0070 nb         1 0XT      -0.600000
     15 N15         -2.1320     2.4910     0.0240 nv         1 0XT      -0.949500
     16 H1           3.5190     1.9240    -0.8730 hc         1 0XT       0.052700
     17 H2           2.5330     3.0920     0.0140 hc         1 0XT       0.052700
     18 H3           3.5220     1.9110     0.8820 hc         1 0XT       0.052700
     19 H4          -3.4510    -2.8170     0.0610 hn         1 0XT       0.446800
     20 H5          -4.5340    -1.4780     0.0830 hn         1 0XT       0.446800
     21 H6           4.4960    -2.2190    -0.0370 h1         1 0XT       0.052033
     22 H7           3.0090    -2.5950     0.8620 h1         1 0XT       0.052033
     23 H8           2.9920    -2.5840    -0.9120 h1         1 0XT       0.052033
     24 H9          -3.0800     2.8250     0.0440 hn         1 0XT       0.454800
     25 H10         -1.3820     3.1590     0.0460 hn         1 0XT       0.454800
@<TRIPOS>BOND
     1     1     3 1   
     2     1    11 ar  
     3     1    14 ar  
     4     2     4 ar  
     5     2     7 ar  
     6     2    10 ar  
     7     3    16 1   
     8     3    17 1   
     9     3    18 1   
    10     4     6 ar  
    11     4    14 ar  
    12     5     8 1   
    13     5     9 ar  
    14     5    10 ar  
    15     6     9 ar  
    16     6    15 1   
    17     7    11 ar  
    18     8    19 1   
    19     8    20 1   
    20    11    12 1   
    21    12    13 1   
    22    13    21 1   
    23    13    22 1   
    24    13    23 1   
    25    15    24 1   
    26    15    25 1   
@<TRIPOS>SUBSTRUCTURE
     1 0XT         1 TEMP              0 ****  ****    0 ROOT
