@<TRIPOS>MOLECULE
0XT
   25    26     1     0     0
SMALL
No Charge or Current Charge


@<TRIPOS>ATOM
      1 C5           1.7500     1.1100    -0.0160 ca         1 0XT       0.270300
      2 C6          -0.3330    -0.6570    -0.0520 ca         1 0XT       0.163000
      3 C8           2.9030     2.1050     0.0040 c3         1 0XT      -0.126400
      4 C10         -0.5430     0.7600    -0.0530 ca         1 0XT      -0.012000
      5 C11         -2.6190    -0.9370    -0.0770 ca         1 0XT       0.447900
      6 C12         -1.8990     1.1920    -0.0700 ca         1 0XT       0.472900
      7 N4           0.9250    -1.1540    -0.0360 nb         1 0XT      -0.224000
      8 N14         -3.6600    -1.7940    -0.0870 nv         1 0XT      -1.062900
      9 N13         -2.9370     0.3540    -0.0770 nb         1 0XT      -0.357000
     10 N9          -1.3990    -1.4860    -0.0650 nb         1 0XT      -0.282000
     11 C2           1.9680    -0.2940    -0.0190 ca         1 0XT       0.328300
     12 O1           3.2690    -0.7770    -0.0030 os         1 0XT      -0.451300
     13 C3           3.5420    -2.1940    -0.0050 c3         1 0XT       0.154900
     14 N7           0.5020     1.6390    -0.0320 nb         1 0XT      -0.600000
     15 N15         -2.2490     2.5090    -0.0710 nv         1 0XT      -1.059900
     16 H1           3.5470     1.9700    -0.8720 hc         1 0XT       0.052700
     17 H2           2.5520     3.1430     0.0020 hc         1 0XT       0.052700
     18 H3           3.5210     1.9640     0.8990 hc         1 0XT       0.052700
     19 H4          -3.4800    -2.7650     0.1560 hn         1 0XT       0.502000
     20 H5          -4.5820    -1.4310     0.1430 hn         1 0XT       0.502000
     21 H6           4.6240    -2.3740     0.0090 h1         1 0XT       0.052033
     22 H7           3.1060    -2.6780     0.8780 h1         1 0XT       0.052033
     23 H8           3.1300    -2.6710    -0.9040 h1         1 0XT       0.052033
     24 H9          -3.1870     2.7500     0.2370 hn         1 0XT       0.510000
     25 H10         -1.5100     3.1720     0.1490 hn         1 0XT       0.510000
@<TRIPOS>BOND
     1     1     3 1   
     2     1    11 ar  
     3     1    14 ar  
     4     2     4 ar  
     5     2     7 ar  
     6     2    10 ar  
     7     3    16 1   
     8     3    17 1   
     9     3    18 1   
    10     4     6 ar  
    11     4    14 ar  
    12     5     8 1   
    13     5     9 ar  
    14     5    10 ar  
    15     6     9 ar  
    16     6    15 1   
    17     7    11 ar  
    18     8    19 1   
    19     8    20 1   
    20    11    12 1   
    21    12    13 1   
    22    13    21 1   
    23    13    22 1   
    24    13    23 1   
    25    15    24 1   
    26    15    25 1   
@<TRIPOS>SUBSTRUCTURE
     1 0XT         1 TEMP              0 ****  ****    0 ROOT
