@<TRIPOS>MOLECULE
0XU
   47    49     1     0     0
SMALL
abcg2


@<TRIPOS>ATOM
      1 N            6.2480    -0.2010    -2.2280 n8         1 0XU      -0.979200
      2 CA           6.0320     0.3880    -0.9160 c3         1 0XU       0.021500
      3 C            7.3720     0.5980    -0.1800 c          1 0XU       0.725000
      4 O            8.3280    -0.1300    -0.5130 o          1 0XU      -0.728000
      5 OXT          7.3720     1.4550     0.7270 o          1 0XU      -0.728000
      6 CB           5.0990    -0.4160     0.0060 c3         1 0XU      -0.105400
      7 CG           3.6940    -0.6000    -0.5530 c3         1 0XU      -0.116400
      8 CD           2.7350    -1.3200     0.4100 c3         1 0XU       0.196700
      9 NE           3.1190    -2.6880     0.7420 n8         1 0XU      -0.998200
     10 C5           1.3490    -1.3290    -0.1690 c2         1 0XU      -0.205200
     11 C4           0.3540    -0.5600     0.2530 c2         1 0XU      -0.006100
     12 O4          -0.8780    -0.5780    -0.3550 os         1 0XU      -0.349100
     13 C3           0.3520     0.4660     1.3570 c5         1 0XU       0.155500
     14 O3           0.7470     1.7340     0.8880 oh         1 0XU      -0.640000
     15 C2          -1.1410     0.5230     1.6770 c5         1 0XU       0.137300
     16 O2          -1.6240     1.6940     2.2440 oh         1 0XU      -0.617000
     17 C1          -1.7400     0.3380     0.2850 c5         1 0XU       0.311300
     18 N9          -3.0750    -0.1790     0.2720 na         1 0XU      -0.280300
     19 C8          -3.5290    -1.3420     0.8400 cc         1 0XU       0.418700
     20 N7          -4.7910    -1.5580     0.6280 nd         1 0XU      -0.564100
     21 C7          -5.2030    -0.4840    -0.1210 ca         1 0XU      -0.101600
     22 C6          -6.4460    -0.1220    -0.6730 ca         1 0XU       0.448900
     23 N6          -7.5440    -0.8620    -0.5260 nv         1 0XU      -1.070900
     24 N1          -6.5110     1.0170    -1.3720 nb         1 0XU      -0.308000
     25 C10         -5.4130     1.7530    -1.5170 ca         1 0XU       0.178900
     26 N3          -4.1980     1.5170    -1.0500 nb         1 0XU      -0.205000
     27 C9          -4.1510     0.3830    -0.3580 ca         1 0XU       0.144500
     28 H1           6.7590    -1.0670    -2.1140 hn         1 0XU       0.371500
     29 H2           5.3610    -0.4440    -2.6530 hn         1 0XU       0.371500
     30 H4           5.5720     1.3730    -1.0660 h1         1 0XU       0.043700
     31 H6           5.5580    -1.3910     0.2050 hc         1 0XU       0.043200
     32 H7           5.0300     0.0990     0.9700 hc         1 0XU       0.043200
     33 H8           3.2760     0.3840    -0.7980 hc         1 0XU       0.036200
     34 H9           3.7230    -1.1610    -1.4950 hc         1 0XU       0.036200
     35 H10          2.7310    -0.7560     1.3500 h1         1 0XU       0.053700
     36 H11          3.2070    -3.2240    -0.1150 hn         1 0XU       0.399000
     37 H12          4.0420    -2.6900     1.1580 hn         1 0XU       0.399000
     38 H14          1.1850    -1.9800    -1.0240 ha         1 0XU       0.190000
     39 H15          0.9450     0.1460     2.2210 h1         1 0XU       0.067700
     40 H16          1.6530     1.6720     0.5680 ho         1 0XU       0.464000
     41 H17         -1.3760    -0.3610     2.2870 h1         1 0XU       0.042700
     42 H18         -1.4020     1.7000     3.1810 ho         1 0XU       0.452000
     43 H19         -1.7680     1.2910    -0.2520 h2         1 0XU       0.129700
     44 H20         -2.8740    -1.9960     1.3970 h5         1 0XU       0.070800
     45 H21         -7.5230    -1.7320    -0.0230 hn         1 0XU       0.503500
     46 H22         -8.4060    -0.5840    -0.9620 hn         1 0XU       0.503500
     47 H23         -5.5340     2.6640    -2.0940 h5         1 0XU       0.044100
@<TRIPOS>BOND
     1     1     2 1   
     2     1    28 1   
     3     1    29 1   
     4     2     3 1   
     5     2     6 1   
     6     2    30 1   
     7     3     4 1   
     8     3     5 1   
     9     6     7 1   
    10     6    31 1   
    11     6    32 1   
    12     7     8 1   
    13     7    33 1   
    14     7    34 1   
    15     8     9 1   
    16     8    10 1   
    17     8    35 1   
    18     9    36 1   
    19     9    37 1   
    20    10    11 2   
    21    10    38 1   
    22    11    12 1   
    23    11    13 1   
    24    12    17 1   
    25    13    14 1   
    26    13    15 1   
    27    13    39 1   
    28    14    40 1   
    29    15    16 1   
    30    15    17 1   
    31    15    41 1   
    32    16    42 1   
    33    17    18 1   
    34    17    43 1   
    35    18    19 1   
    36    18    27 1   
    37    19    20 2   
    38    19    44 1   
    39    20    21 1   
    40    21    22 ar  
    41    21    27 ar  
    42    22    23 1   
    43    22    24 ar  
    44    23    45 1   
    45    23    46 1   
    46    24    25 ar  
    47    25    26 ar  
    48    25    47 1   
    49    26    27 ar  
@<TRIPOS>SUBSTRUCTURE
     1 0XU         1 TEMP              0 ****  ****    0 ROOT
