@<TRIPOS>MOLECULE
0XU
   47    49     1     0     0
SMALL
No Charge or Current Charge


@<TRIPOS>ATOM
      1 N            6.3420    -0.7880    -2.4830 n8         1 0XU      -0.979200
      2 CA           6.2720     0.2210    -1.3660 c3         1 0XU       0.021500
      3 C            7.6510     0.6220    -0.6890 c          1 0XU       0.725000
      4 O            8.3350    -0.2600    -0.1830 o          1 0XU      -0.728000
      5 OXT          8.0140     1.7900    -0.7570 o          1 0XU      -0.728000
      6 CB           5.2410    -0.2370    -0.2980 c3         1 0XU      -0.105400
      7 CG           3.7790    -0.3390    -0.8160 c3         1 0XU      -0.116400
      8 CD           2.7330    -0.6420     0.2840 c3         1 0XU       0.196700
      9 NE           2.9570    -1.9660     0.8680 n8         1 0XU      -0.998200
     10 C5           1.3150    -0.5860    -0.2410 c2         1 0XU      -0.205200
     11 C4           0.2050    -0.3050     0.4610 c2         1 0XU      -0.006100
     12 O4          -1.0570    -0.3140    -0.0740 os         1 0XU      -0.349100
     13 C3           0.1760     0.0010     1.9560 c5         1 0XU       0.155500
     14 O3           0.4600     1.3900     2.1870 oh         1 0XU      -0.640000
     15 C2          -1.3000    -0.3310     2.2890 c5         1 0XU       0.137300
     16 O2          -1.7520     0.3350     3.4780 oh         1 0XU      -0.617000
     17 C1          -1.9440     0.1810     0.9590 c5         1 0XU       0.311300
     18 N9          -3.3210    -0.2140     0.6570 na         1 0XU      -0.280300
     19 C8          -4.0700    -1.1820     1.3370 cc         1 0XU       0.418700
     20 N7          -5.3110    -1.2940     0.8230 nd         1 0XU      -0.564100
     21 C7          -5.3180    -0.3480    -0.2070 ca         1 0XU      -0.101600
     22 C6          -6.3490    -0.0050    -1.1050 ca         1 0XU       0.448900
     23 N6          -7.5710    -0.6010    -1.0820 nv         1 0XU      -1.070900
     24 N1          -6.1690     0.9360    -2.0450 nb         1 0XU      -0.308000
     25 C10         -4.9490     1.5290    -2.0670 ca         1 0XU       0.178900
     26 N3          -3.9050     1.2660    -1.2450 nb         1 0XU      -0.205000
     27 C9          -4.1190     0.3120    -0.3180 ca         1 0XU       0.144500
     28 H1           6.7800    -1.6440    -2.1220 hn         1 0XU       0.371500
     29 H2           5.3900    -1.0800    -2.7250 hn         1 0XU       0.371500
     30 H4           5.8770     1.1470    -1.8090 h1         1 0XU       0.043700
     31 H6           5.5600    -1.1990     0.1210 hc         1 0XU       0.043200
     32 H7           5.2640     0.4840     0.5280 hc         1 0XU       0.043200
     33 H8           3.5120     0.6150    -1.2880 hc         1 0XU       0.036200
     34 H9           3.7130    -1.1040    -1.5990 hc         1 0XU       0.036200
     35 H10          2.8550     0.1060     1.0800 h1         1 0XU       0.053700
     36 H11          2.8570    -2.6680     0.1280 hn         1 0XU       0.399000
     37 H12          3.9430    -2.0380     1.1350 hn         1 0XU       0.399000
     38 H14          1.2230    -0.8130    -1.3030 ha         1 0XU       0.190000
     39 H15          0.8630    -0.6430     2.5230 h1         1 0XU       0.067700
     40 H16          1.3170     1.5830     1.7470 ho         1 0XU       0.464000
     41 H17         -1.4300    -1.4170     2.3860 h1         1 0XU       0.042700
     42 H18         -1.1530     1.1120     3.5700 ho         1 0XU       0.452000
     43 H19         -1.9310     1.2790     0.9490 h2         1 0XU       0.129700
     44 H20         -3.6740    -1.7540     2.1670 h5         1 0XU       0.070800
     45 H21         -7.6500    -1.4550    -0.5340 hn         1 0XU       0.503500
     46 H22         -8.1530    -0.5380    -1.9130 hn         1 0XU       0.503500
     47 H23         -4.7930     2.2950    -2.8240 h5         1 0XU       0.044100
@<TRIPOS>BOND
     1     1     2 1   
     2     1    28 1   
     3     1    29 1   
     4     2     3 1   
     5     2     6 1   
     6     2    30 1   
     7     3     4 1   
     8     3     5 1   
     9     6     7 1   
    10     6    31 1   
    11     6    32 1   
    12     7     8 1   
    13     7    33 1   
    14     7    34 1   
    15     8     9 1   
    16     8    10 1   
    17     8    35 1   
    18     9    36 1   
    19     9    37 1   
    20    10    11 2   
    21    10    38 1   
    22    11    12 1   
    23    11    13 1   
    24    12    17 1   
    25    13    14 1   
    26    13    15 1   
    27    13    39 1   
    28    14    40 1   
    29    15    16 1   
    30    15    17 1   
    31    15    41 1   
    32    16    42 1   
    33    17    18 1   
    34    17    43 1   
    35    18    19 1   
    36    18    27 1   
    37    19    20 2   
    38    19    44 1   
    39    20    21 1   
    40    21    22 ar  
    41    21    27 ar  
    42    22    23 1   
    43    22    24 ar  
    44    23    45 1   
    45    23    46 1   
    46    24    25 ar  
    47    25    26 ar  
    48    25    47 1   
    49    26    27 ar  
@<TRIPOS>SUBSTRUCTURE
     1 0XU         1 TEMP              0 ****  ****    0 ROOT
