@<TRIPOS>MOLECULE
0XV
   37    39     1     0     0
SMALL
bcc


@<TRIPOS>ATOM
      1 CAV         -2.1860     3.2250    -1.5710 c3         1 0XV      -0.042900
      2 CAI         -2.1940     1.9110    -0.8940 cc         1 0XV       0.108900
      3 OAH         -3.3370     1.1980    -0.9960 os         1 0XV      -0.173200
      4 CAB         -3.1580     0.0310    -0.3300 ca         1 0XV       0.051100
      5 CAC         -4.1020    -0.9660    -0.1710 ca         1 0XV      -0.118000
      6 CAD         -3.7080    -2.0710     0.5680 ca         1 0XV      -0.114000
      7 CAE         -2.4250    -2.1530     1.1200 ca         1 0XV      -0.145000
      8 CAF         -1.4960    -1.1410     0.9450 ca         1 0XV      -0.082000
      9 CAA         -1.8670    -0.0250     0.1930 ca         1 0XV      -0.082800
     10 CAG         -1.2490     1.2240    -0.1940 cd         1 0XV      -0.238400
     11 CAJ          0.0980     1.7260     0.1280 c          1 0XV       0.630900
     12 OAK          0.2730     2.8980     0.4140 o          1 0XV      -0.533100
     13 CAL          1.2240     0.7710     0.0880 ca         1 0XV      -0.205600
     14 CAM          1.1950    -0.3500    -0.7360 ca         1 0XV      -0.044000
     15 CAN          2.2720    -1.2180    -0.8180 ca         1 0XV      -0.154800
     16 CAO          2.2370    -2.4170    -1.7220 c3         1 0XV      -0.040800
     17 CAP          3.3970    -0.9520    -0.0280 ca         1 0XV       0.167100
     18 OAW          4.4740    -1.7550    -0.0320 oh         1 0XV      -0.494100
     19 CAQ          3.4600     0.1700     0.8110 ca         1 0XV      -0.154800
     20 CAT          4.6780     0.4240     1.6470 c3         1 0XV      -0.040800
     21 CAU          2.3720     1.0230     0.8420 ca         1 0XV      -0.044000
     22 H1          -2.5830     3.1390    -2.5830 hc         1 0XV       0.067700
     23 H2          -2.8050     3.9450    -1.0320 hc         1 0XV       0.067700
     24 H3          -1.1790     3.6270    -1.6270 hc         1 0XV       0.067700
     25 H4          -5.0930    -0.8870    -0.5960 ha         1 0XV       0.149000
     26 H5          -4.4100    -2.8800     0.7250 ha         1 0XV       0.135000
     27 H6          -2.1550    -3.0270     1.6990 ha         1 0XV       0.134000
     28 H7          -0.5120    -1.2200     1.3850 ha         1 0XV       0.145000
     29 H8           0.3250    -0.5490    -1.3500 ha         1 0XV       0.145500
     30 H9           3.0530    -2.4110    -2.4500 hc         1 0XV       0.043700
     31 H10          2.3000    -3.3550    -1.1650 hc         1 0XV       0.043700
     32 H11          1.3070    -2.4440    -2.2860 hc         1 0XV       0.043700
     33 H12          4.3580    -2.4980    -0.6350 ho         1 0XV       0.430000
     34 H13          5.5820     0.4910     1.0400 hc         1 0XV       0.043700
     35 H14          4.5780     1.3570     2.1990 hc         1 0XV       0.043700
     36 H15          4.8420    -0.3740     2.3740 hc         1 0XV       0.043700
     37 H16          2.4070     1.8960     1.4830 ha         1 0XV       0.145500
@<TRIPOS>BOND
     1     1     2 1   
     2     1    22 1   
     3     1    23 1   
     4     1    24 1   
     5     2     3 1   
     6     2    10 2   
     7     3     4 1   
     8     4     5 ar  
     9     4     9 ar  
    10     5     6 ar  
    11     5    25 1   
    12     6     7 ar  
    13     6    26 1   
    14     7     8 ar  
    15     7    27 1   
    16     8     9 ar  
    17     8    28 1   
    18     9    10 1   
    19    10    11 1   
    20    11    12 2   
    21    11    13 1   
    22    13    14 ar  
    23    13    21 ar  
    24    14    15 ar  
    25    14    29 1   
    26    15    16 1   
    27    15    17 ar  
    28    16    30 1   
    29    16    31 1   
    30    16    32 1   
    31    17    18 1   
    32    17    19 ar  
    33    18    33 1   
    34    19    20 1   
    35    19    21 ar  
    36    20    34 1   
    37    20    35 1   
    38    20    36 1   
    39    21    37 1   
@<TRIPOS>SUBSTRUCTURE
     1 0XV         1 TEMP              0 ****  ****    0 ROOT
