@<TRIPOS>MOLECULE
0XV
   37    39     1     0     0
SMALL
No Charge or Current Charge


@<TRIPOS>ATOM
      1 CAV         -2.4410     3.4460    -1.4290 c3         1 0XV      -0.042900
      2 CAI         -2.3470     2.0660    -0.8370 cc         1 0XV       0.108900
      3 OAH         -3.5290     1.3430    -0.6840 os         1 0XV      -0.173200
      4 CAB         -3.1360     0.1400    -0.1420 ca         1 0XV       0.051100
      5 CAC         -4.0000    -0.9040     0.2150 ca         1 0XV      -0.100000
      6 CAD         -3.4420    -2.0620     0.7960 ca         1 0XV      -0.096000
      7 CAE         -2.0480    -2.1450     1.0210 ca         1 0XV      -0.127000
      8 CAF         -1.1980    -1.0800     0.6570 ca         1 0XV      -0.064000
      9 CAA         -1.7800     0.0480     0.0520 ca         1 0XV      -0.082800
     10 CAG         -1.2620     1.3070    -0.4260 cd         1 0XV      -0.238400
     11 CAJ          0.1580     1.7660    -0.5070 c          1 0XV       0.630900
     12 OAK          0.4540     2.9230    -0.7810 o          1 0XV      -0.533100
     13 CAL          1.2520     0.7660    -0.2840 ca         1 0XV      -0.205600
     14 CAM          1.3610    -0.3580    -1.1250 ca         1 0XV      -0.026000
     15 CAN          2.3930    -1.2970    -0.9330 ca         1 0XV      -0.154800
     16 CAO          2.4710    -2.5150    -1.8520 c3         1 0XV      -0.040800
     17 CAP          3.3310    -1.0910     0.1030 ca         1 0XV       0.167100
     18 OAW          4.3390    -1.9930     0.3020 oh         1 0XV      -0.533100
     19 CAQ          3.2400     0.0450     0.9360 ca         1 0XV      -0.154800
     20 CAT          4.2530     0.2830     2.0540 c3         1 0XV      -0.040800
     21 CAU          2.2010     0.9730     0.7320 ca         1 0XV      -0.026000
     22 H1          -3.4780     3.6990    -1.6810 hc         1 0XV       0.067700
     23 H2          -2.0740     4.1990    -0.7230 hc         1 0XV       0.067700
     24 H3          -1.8470     3.5180    -2.3470 hc         1 0XV       0.067700
     25 H4          -5.0720    -0.8190     0.0530 ha         1 0XV       0.131000
     26 H5          -4.0880    -2.8880     1.0850 ha         1 0XV       0.117000
     27 H6          -1.6280    -3.0340     1.4880 ha         1 0XV       0.116000
     28 H7          -0.1350    -1.1420     0.8670 ha         1 0XV       0.127000
     29 H8           0.6340    -0.5040    -1.9220 ha         1 0XV       0.127500
     30 H9           3.4190    -2.5370    -2.4040 hc         1 0XV       0.043700
     31 H10          2.3850    -3.4490    -1.2820 hc         1 0XV       0.043700
     32 H11          1.6650    -2.5160    -2.5950 hc         1 0XV       0.043700
     33 H12          4.2460    -2.7040    -0.3640 ho         1 0XV       0.469000
     34 H13          5.2700     0.3630     1.6530 hc         1 0XV       0.043700
     35 H14          4.0440     1.2070     2.6060 hc         1 0XV       0.043700
     36 H15          4.2410    -0.5420     2.7770 hc         1 0XV       0.043700
     37 H16          2.1240     1.8530     1.3680 ha         1 0XV       0.127500
@<TRIPOS>BOND
     1     1     2 1   
     2     1    22 1   
     3     1    23 1   
     4     1    24 1   
     5     2     3 1   
     6     2    10 2   
     7     3     4 1   
     8     4     5 ar  
     9     4     9 ar  
    10     5     6 ar  
    11     5    25 1   
    12     6     7 ar  
    13     6    26 1   
    14     7     8 ar  
    15     7    27 1   
    16     8     9 ar  
    17     8    28 1   
    18     9    10 1   
    19    10    11 1   
    20    11    12 2   
    21    11    13 1   
    22    13    14 ar  
    23    13    21 ar  
    24    14    15 ar  
    25    14    29 1   
    26    15    16 1   
    27    15    17 ar  
    28    16    30 1   
    29    16    31 1   
    30    16    32 1   
    31    17    18 1   
    32    17    19 ar  
    33    18    33 1   
    34    19    20 1   
    35    19    21 ar  
    36    20    34 1   
    37    20    35 1   
    38    20    36 1   
    39    21    37 1   
@<TRIPOS>SUBSTRUCTURE
     1 0XV         1 TEMP              0 ****  ****    0 ROOT
