@<TRIPOS>MOLECULE
0XW
   24    24     1     0     0
SMALL
abcg2


@<TRIPOS>ATOM
      1 C01         11.9230    -6.9120    -7.2520 c3         1 0XW       0.094400
      2 N02         13.3800    -7.0670    -6.9260 n4         1 0XW      -0.495000
      3 C03         13.6030    -8.4020    -6.2940 c3         1 0XW       0.094400
      4 C04         14.1970    -6.9310    -8.1870 c5         1 0XW       0.080600
      5 C05         14.4110    -5.4310    -8.4080 c5         1 0XW       0.149300
      6 O06         15.7830    -5.2700    -8.7650 oh         1 0XW      -0.659000
      7 C07         14.0390    -4.7690    -7.0660 c5         1 0XW      -0.111400
      8 C08         13.9120    -5.9140    -6.0660 c5         1 0XW      -0.016700
      9 C09         13.1410    -5.5970    -4.7620 c          1 0XW       0.721000
     10 O10         13.4680    -4.5030    -4.2530 o          1 0XW      -0.668500
     11 O11         12.3280    -6.4390    -4.3210 o          1 0XW      -0.668500
     12 H1          11.3660    -6.9610    -6.3250 hx         1 0XW       0.088033
     13 H2          11.7630    -5.9570    -7.7430 hx         1 0XW       0.088033
     14 H3          11.6480    -7.7210    -7.9230 hx         1 0XW       0.088033
     15 H4          13.0010    -8.4490    -5.3940 hx         1 0XW       0.088033
     16 H5          13.3080    -9.1690    -7.0050 hx         1 0XW       0.088033
     17 H6          14.6590    -8.4970    -6.0540 hx         1 0XW       0.088033
     18 H7          13.6890    -7.4480    -8.9960 hx         1 0XW       0.089700
     19 H8          15.1610    -7.3990    -8.0000 hx         1 0XW       0.089700
     20 H9          13.7780    -5.0560    -9.2140 h1         1 0XW       0.051700
     21 H10         15.9120    -4.3620    -9.0660 ho         1 0XW       0.462000
     22 H11         14.8120    -4.0710    -6.7580 hc         1 0XW       0.089200
     23 H12         13.1030    -4.2180    -7.1460 hc         1 0XW       0.089200
     24 H13         14.9080    -6.2480    -5.7700 hx         1 0XW       0.078700
@<TRIPOS>BOND
     1     1     2 1   
     2     1    12 1   
     3     1    13 1   
     4     1    14 1   
     5     2     3 1   
     6     2     4 1   
     7     2     8 1   
     8     3    15 1   
     9     3    16 1   
    10     3    17 1   
    11     4     5 1   
    12     4    18 1   
    13     4    19 1   
    14     5     6 1   
    15     5     7 1   
    16     5    20 1   
    17     6    21 1   
    18     7     8 1   
    19     7    22 1   
    20     7    23 1   
    21     8     9 1   
    22     8    24 1   
    23     9    10 1   
    24     9    11 1   
@<TRIPOS>SUBSTRUCTURE
     1 0XW         1 TEMP              0 ****  ****    0 ROOT
