@<TRIPOS>MOLECULE
0XW
   24    24     1     0     0
SMALL
No Charge or Current Charge


@<TRIPOS>ATOM
      1 C01         11.7620    -7.0490    -7.0210 c3         1 0XW       0.094400
      2 N02         13.2990    -7.0560    -6.9980 n4         1 0XW      -0.495000
      3 C03         13.7830    -8.3990    -6.4420 c3         1 0XW       0.094400
      4 C04         13.8770    -6.7890    -8.4340 c5         1 0XW       0.080600
      5 C05         14.7200    -5.4790    -8.3520 c5         1 0XW       0.149300
      6 O06         16.0900    -5.7440    -8.0300 oh         1 0XW      -0.659000
      7 C07         13.9970    -4.7260    -7.2130 c5         1 0XW      -0.111400
      8 C08         13.8850    -5.8620    -6.1600 c5         1 0XW      -0.016700
      9 C09         13.1210    -5.4050    -4.8670 c          1 0XW       0.721000
     10 O10         12.2480    -4.5490    -4.9430 o          1 0XW      -0.668500
     11 O11         13.4400    -5.9130    -3.8010 o          1 0XW      -0.668500
     12 H1          11.3860    -7.2000    -6.0070 hx         1 0XW       0.088033
     13 H2          11.4130    -6.0880    -7.4030 hx         1 0XW       0.088033
     14 H3          11.4080    -7.8550    -7.6690 hx         1 0XW       0.088033
     15 H4          13.4110    -8.5200    -5.4230 hx         1 0XW       0.088033
     16 H5          13.4080    -9.2070    -7.0730 hx         1 0XW       0.088033
     17 H6          14.8750    -8.4090    -6.4390 hx         1 0XW       0.088033
     18 H7          13.0290    -6.6850    -9.1150 hx         1 0XW       0.089700
     19 H8          14.4630    -7.6530    -8.7550 hx         1 0XW       0.089700
     20 H9          14.6620    -4.9230    -9.2980 h1         1 0XW       0.051700
     21 H10         16.5610    -4.8810    -8.0510 ho         1 0XW       0.462000
     22 H11         14.5650    -3.8640    -6.8450 hc         1 0XW       0.089200
     23 H12         13.0150    -4.3620    -7.5340 hc         1 0XW       0.089200
     24 H13         14.8750    -6.1730    -5.8200 hx         1 0XW       0.078700
@<TRIPOS>BOND
     1     1     2 1   
     2     1    12 1   
     3     1    13 1   
     4     1    14 1   
     5     2     3 1   
     6     2     4 1   
     7     2     8 1   
     8     3    15 1   
     9     3    16 1   
    10     3    17 1   
    11     4     5 1   
    12     4    18 1   
    13     4    19 1   
    14     5     6 1   
    15     5     7 1   
    16     5    20 1   
    17     6    21 1   
    18     7     8 1   
    19     7    22 1   
    20     7    23 1   
    21     8     9 1   
    22     8    24 1   
    23     9    10 1   
    24     9    11 1   
@<TRIPOS>SUBSTRUCTURE
     1 0XW         1 TEMP              0 ****  ****    0 ROOT
