@<TRIPOS>MOLECULE
0XZ
   55    58     1     0     0
SMALL
No Charge or Current Charge


@<TRIPOS>ATOM
      1 Cl3         -4.9030    -2.4730     4.8250 cl         1 0XZ      -0.203000
      2 C27         -4.3630    -1.4220     3.5220 ca         1 0XZ       0.124000
      3 C26         -4.6870    -0.0570     3.5430 ca         1 0XZ      -0.102000
      4 C25         -4.2550     0.7850     2.5020 ca         1 0XZ      -0.086000
      5 C28         -3.6070    -1.9490     2.4630 ca         1 0XZ      -0.102000
      6 C29         -3.1750    -1.1100     1.4210 ca         1 0XZ      -0.086000
      7 C24         -3.4980     0.2640     1.4310 ca         1 0XZ      -0.095300
      8 C20         -3.0280     1.1880     0.3090 c3         1 0XZ       0.166000
      9 C21         -3.5720     0.7470    -1.0710 c3         1 0XZ      -0.097400
     10 C22         -3.2800     1.7430    -2.2110 c3         1 0XZ       0.165600
     11 O23         -3.8980     1.2850    -3.4180 oh         1 0XZ      -0.660000
     12 N19         -1.5670     1.2630     0.3190 ns         1 0XZ      -0.513900
     13 C17         -0.8230     2.4030     0.0810 c          1 0XZ       0.560100
     14 O18         -1.3660     3.4840    -0.1200 o          1 0XZ      -0.584100
     15 C13          0.7630     2.2620     0.1650 c6         1 0XZ       0.124200
     16 C12          1.1940     1.3100     1.3310 c6         1 0XZ      -0.092900
     17 C11          2.7100     0.9900     1.3220 c6         1 0XZ       0.221800
     18 N16          1.4190     3.6060     0.3420 n8         1 0XZ      -1.049200
     19 C14          1.2610     1.5940    -1.1540 c6         1 0XZ      -0.092900
     20 C15          2.7720     1.2580    -1.1330 c6         1 0XZ       0.221800
     21 N10          3.0960     0.3780     0.0210 nh         1 0XZ      -0.762300
     22 C3           4.2160    -0.4760    -0.0690 ca         1 0XZ       0.439900
     23 N5           5.2110    -0.3130     0.8300 nb         1 0XZ      -0.306000
     24 C6           6.2750    -1.1420     0.7140 ca         1 0XZ       0.179900
     25 N4           6.4450    -2.1220    -0.2060 nb         1 0XZ      -0.233000
     26 C1           4.3270    -1.4820    -1.0460 ca         1 0XZ      -0.244800
     27 C9           3.4290    -1.9110    -2.0790 cc         1 0XZ      -0.207200
     28 C8           4.0490    -2.9610    -2.7350 cd         1 0XZ      -0.181100
     29 N7           5.3080    -3.1920    -2.1250 na         1 0XZ      -0.317400
     30 C2           5.4430    -2.2800    -1.0890 ca         1 0XZ       0.142500
     31 H1          -5.2710     0.3500     4.3650 ha         1 0XZ       0.130000
     32 H2          -4.5100     1.8420     2.5300 ha         1 0XZ       0.115000
     33 H3          -3.3560    -3.0070     2.4510 ha         1 0XZ       0.130000
     34 H4          -2.5870    -1.5320     0.6090 ha         1 0XZ       0.115000
     35 H5          -3.4260     2.1920     0.5150 h1         1 0XZ       0.077700
     36 H6          -3.1560    -0.2310    -1.3380 hc         1 0XZ       0.065700
     37 H7          -4.6580     0.6190    -0.9890 hc         1 0XZ       0.065700
     38 H8          -3.6700     2.7330    -1.9370 h1         1 0XZ       0.018700
     39 H9          -2.1950     1.8320    -2.3540 h1         1 0XZ       0.018700
     40 H10         -3.7010     1.9530    -4.1120 ho         1 0XZ       0.447000
     41 H11         -1.0520     0.4130     0.5090 hn         1 0XZ       0.306500
     42 H12          0.9190     1.7510     2.2990 hc         1 0XZ       0.062950
     43 H13          0.6610     0.3520     1.2730 hc         1 0XZ       0.062950
     44 H14          3.2880     1.9090     1.5040 h1         1 0XZ       0.069450
     45 H15          2.9230     0.3000     2.1520 h1         1 0XZ       0.069450
     46 H16          0.9780     4.2560    -0.3210 hn         1 0XZ       0.416000
     47 H17          1.1250     3.9950     1.2460 hn         1 0XZ       0.416000
     48 H19          0.6990     0.6680    -1.3390 hc         1 0XZ       0.062950
     49 H20          1.0470     2.2500    -2.0090 hc         1 0XZ       0.062950
     50 H21          3.0420     0.7790    -2.0850 h1         1 0XZ       0.069450
     51 H22          3.3540     2.1900    -1.0720 h1         1 0XZ       0.069450
     52 H23          7.0790    -1.0080     1.4360 h5         1 0XZ       0.042100
     53 H24          2.4400    -1.5160    -2.3060 ha         1 0XZ       0.201000
     54 H25          3.6920    -3.5580    -3.5730 h4         1 0XZ       0.216000
     55 H26          5.9890    -3.8990    -2.3850 hn         1 0XZ       0.361000
@<TRIPOS>BOND
     1     1     2 1   
     2     2     3 ar  
     3     2     5 ar  
     4     3     4 ar  
     5     3    31 1   
     6     4     7 ar  
     7     4    32 1   
     8     5     6 ar  
     9     5    33 1   
    10     6     7 ar  
    11     6    34 1   
    12     7     8 1   
    13     8     9 1   
    14     8    12 1   
    15     8    35 1   
    16     9    10 1   
    17     9    36 1   
    18     9    37 1   
    19    10    11 1   
    20    10    38 1   
    21    10    39 1   
    22    11    40 1   
    23    12    13 1   
    24    12    41 1   
    25    13    14 2   
    26    13    15 1   
    27    15    16 1   
    28    15    18 1   
    29    15    19 1   
    30    16    17 1   
    31    16    42 1   
    32    16    43 1   
    33    17    21 1   
    34    17    44 1   
    35    17    45 1   
    36    18    46 1   
    37    18    47 1   
    38    19    20 1   
    39    19    48 1   
    40    19    49 1   
    41    20    21 1   
    42    20    50 1   
    43    20    51 1   
    44    21    22 1   
    45    22    23 ar  
    46    22    26 ar  
    47    23    24 ar  
    48    24    25 ar  
    49    24    52 1   
    50    25    30 ar  
    51    26    27 1   
    52    26    30 ar  
    53    27    28 2   
    54    27    53 1   
    55    28    29 1   
    56    28    54 1   
    57    29    30 1   
    58    29    55 1   
@<TRIPOS>SUBSTRUCTURE
     1 0XZ         1 TEMP              0 ****  ****    0 ROOT
