@<TRIPOS>MOLECULE
0XZ
   55    58     1     0     0
SMALL
abcg2


@<TRIPOS>ATOM
      1 CL3         -5.1970    -4.0040     1.3440 cl         1 0XZ      -0.203000
      2 C27         -4.5210    -2.4210     1.1280 ca         1 0XZ       0.124000
      3 C26         -4.4800    -1.5440     2.2000 ca         1 0XZ      -0.102000
      4 C25         -3.9340    -0.2820     2.0140 ca         1 0XZ      -0.086000
      5 C28         -4.0270    -2.0550    -0.1150 ca         1 0XZ      -0.102000
      6 C29         -3.4880    -0.7880    -0.2800 ca         1 0XZ      -0.086000
      7 C24         -3.4340     0.1110     0.7790 ca         1 0XZ      -0.095300
      8 C20         -2.8960     1.5120     0.5890 c3         1 0XZ       0.166000
      9 C21         -3.9550     2.4120    -0.0480 c3         1 0XZ      -0.097400
     10 C22         -3.5290     3.8690    -0.1160 c3         1 0XZ       0.165600
     11 O23         -4.6080     4.6180    -0.6300 oh         1 0XZ      -0.660000
     12 N19         -1.6930     1.5280    -0.2160 ns         1 0XZ      -0.513900
     13 C17         -0.5120     1.0810     0.2370 c          1 0XZ       0.560100
     14 O18         -0.3650     0.6650     1.3780 o          1 0XZ      -0.584100
     15 C13          0.6650     1.1310    -0.7580 c6         1 0XZ       0.124200
     16 C12          1.7680     2.0080    -0.1360 c6         1 0XZ      -0.092900
     17 C11          3.0860     1.8930    -0.8940 c6         1 0XZ       0.221800
     18 N16          0.3600     1.6580    -2.0710 n8         1 0XZ      -1.049200
     19 C14          1.1880    -0.3080    -0.9330 c6         1 0XZ      -0.092900
     20 C15          2.5210    -0.3070    -1.6660 c6         1 0XZ       0.221800
     21 N10          3.4940     0.4980    -0.9580 nh         1 0XZ      -0.762300
     22 C3           4.4210    -0.0040    -0.1120 ca         1 0XZ       0.439900
     23 N5           5.2580     0.8760     0.4510 nb         1 0XZ      -0.306000
     24 C6           6.2350     0.4540     1.2420 ca         1 0XZ       0.179900
     25 N4           6.5200    -0.7840     1.5850 nb         1 0XZ      -0.233000
     26 C1           4.5840    -1.3800     0.2000 ca         1 0XZ      -0.244800
     27 C9           3.9370    -2.6380    -0.0500 cc         1 0XZ      -0.207200
     28 C8           4.6440    -3.5860     0.6250 cd         1 0XZ      -0.181100
     29 N7           5.6890    -2.9960     1.2820 na         1 0XZ      -0.317400
     30 C2           5.6680    -1.6630     1.0530 ca         1 0XZ       0.142500
     31 H1          -4.8610    -1.8390     3.1680 ha         1 0XZ       0.130000
     32 H2          -3.8970     0.4020     2.8530 ha         1 0XZ       0.115000
     33 H3          -4.0620    -2.7460    -0.9460 ha         1 0XZ       0.130000
     34 H4          -3.1020    -0.5090    -1.2530 ha         1 0XZ       0.115000
     35 H5          -2.6500     1.9180     1.5750 h1         1 0XZ       0.077700
     36 H6          -4.2000     2.0410    -1.0490 hc         1 0XZ       0.065700
     37 H7          -4.8650     2.3350     0.5510 hc         1 0XZ       0.065700
     38 H8          -3.2450     4.2050     0.8910 h1         1 0XZ       0.018700
     39 H9          -2.6380     3.9760    -0.7470 h1         1 0XZ       0.018700
     40 H10         -4.3320     5.5370    -0.6900 ho         1 0XZ       0.447000
     41 H11         -1.7630     1.8060    -1.1810 hn         1 0XZ       0.306500
     42 H12          1.4440     3.0530    -0.1260 hc         1 0XZ       0.062950
     43 H13          1.9270     1.7120     0.9020 hc         1 0XZ       0.062950
     44 H14          2.9720     2.2670    -1.9140 h1         1 0XZ       0.069450
     45 H15          3.8580     2.4800    -0.4060 h1         1 0XZ       0.069450
     46 H16         -0.3000     1.0950    -2.5910 hn         1 0XZ       0.416000
     47 H17          0.0460     2.6190    -2.0540 hn         1 0XZ       0.416000
     48 H19          1.3080    -0.7810     0.0430 hc         1 0XZ       0.062950
     49 H20          0.4580    -0.9020    -1.4930 hc         1 0XZ       0.062950
     50 H21          2.8940    -1.3120    -1.8280 h1         1 0XZ       0.069450
     51 H22          2.3940     0.1300    -2.6590 h1         1 0XZ       0.069450
     52 H23          6.8750     1.2300     1.6510 h5         1 0XZ       0.042100
     53 H24          3.0570    -2.8460    -0.6330 ha         1 0XZ       0.201000
     54 H25          4.4780    -4.6490     0.6930 h4         1 0XZ       0.216000
     55 H26          6.3560    -3.4690     1.8690 hn         1 0XZ       0.361000
@<TRIPOS>BOND
     1     1     2 1   
     2     2     3 ar  
     3     2     5 ar  
     4     3     4 ar  
     5     3    31 1   
     6     4     7 ar  
     7     4    32 1   
     8     5     6 ar  
     9     5    33 1   
    10     6     7 ar  
    11     6    34 1   
    12     7     8 1   
    13     8     9 1   
    14     8    12 1   
    15     8    35 1   
    16     9    10 1   
    17     9    36 1   
    18     9    37 1   
    19    10    11 1   
    20    10    38 1   
    21    10    39 1   
    22    11    40 1   
    23    12    13 1   
    24    12    41 1   
    25    13    14 2   
    26    13    15 1   
    27    15    16 1   
    28    15    18 1   
    29    15    19 1   
    30    16    17 1   
    31    16    42 1   
    32    16    43 1   
    33    17    21 1   
    34    17    44 1   
    35    17    45 1   
    36    18    46 1   
    37    18    47 1   
    38    19    20 1   
    39    19    48 1   
    40    19    49 1   
    41    20    21 1   
    42    20    50 1   
    43    20    51 1   
    44    21    22 1   
    45    22    23 ar  
    46    22    26 ar  
    47    23    24 ar  
    48    24    25 ar  
    49    24    52 1   
    50    25    30 ar  
    51    26    27 1   
    52    26    30 ar  
    53    27    28 2   
    54    27    53 1   
    55    28    29 1   
    56    28    54 1   
    57    29    30 1   
    58    29    55 1   
@<TRIPOS>SUBSTRUCTURE
     1 0XZ         1 TEMP              0 ****  ****    0 ROOT
