@<TRIPOS>MOLECULE
0Y0
   46    48     1     0     0
SMALL
bcc


@<TRIPOS>ATOM
      1 OXT          4.3250    -3.5030    -0.6160 o          1 0Y0      -0.835800
      2 C            5.1810    -2.6630    -0.2670 c          1 0Y0       0.903600
      3 O            6.3930    -2.6760    -0.5570 o          1 0Y0      -0.835800
      4 CA           4.6600    -1.4820     0.5900 c3         1 0Y0       0.011500
      5 N            5.6900    -0.6730     1.2280 n8         1 0Y0      -0.895800
      6 CB           3.7530    -0.5960    -0.2680 c3         1 0Y0      -0.053400
      7 CAS          2.9880     0.4400     0.5360 c3         1 0Y0       0.150800
      8 NAR          2.1230     1.2320    -0.3250 n7         1 0Y0      -0.815200
      9 CAF          1.3120     2.1790     0.4040 c3         1 0Y0       0.138800
     10 CAA          0.3610     2.9360    -0.5140 c5         1 0Y0       0.136100
     11 OAE         -0.4120     2.0630    -1.3430 os         1 0Y0      -0.369600
     12 CAB         -0.6790     3.7230     0.2640 c5         1 0Y0       0.085100
     13 OAH         -1.2050     4.7280    -0.5600 oh         1 0Y0      -0.585800
     14 CAC         -1.7280     2.6320     0.5300 c5         1 0Y0       0.057100
     15 OAI         -3.0250     3.1250     0.6940 oh         1 0Y0      -0.573800
     16 CAD         -1.6400     1.7830    -0.7520 c5         1 0Y0       0.271800
     17 N9          -1.7260     0.3510    -0.4950 na         1 0Y0      -0.279000
     18 C8          -0.6890    -0.5350    -0.3750 cc         1 0Y0       0.427700
     19 N7          -1.0810    -1.7490    -0.1100 nd         1 0Y0      -0.549100
     20 C5          -2.4470    -1.6620    -0.0520 ca         1 0Y0      -0.221200
     21 C4          -2.8700    -0.3630    -0.2930 ca         1 0Y0       0.437800
     22 N3          -4.1320     0.0640    -0.3230 nb         1 0Y0      -0.741000
     23 C2          -4.9850    -0.9160    -0.0860 ca         1 0Y0       0.688900
     24 N1          -4.7260    -2.1970     0.1700 nb         1 0Y0      -0.841000
     25 C6          -3.4550    -2.6110     0.1940 ca         1 0Y0       0.770200
     26 N6          -3.1910    -3.8990     0.4330 nv         1 0Y0      -0.955500
     27 H2           4.0390    -1.9080     1.3870 h1         1 0Y0       0.037700
     28 H3           6.1840    -1.2500     1.8980 hn         1 0Y0       0.327300
     29 H4           6.3880    -0.4560     0.5250 hn         1 0Y0       0.327300
     30 H6           4.3620    -0.0950    -1.0330 hc         1 0Y0       0.048200
     31 H7           3.0390    -1.2270    -0.8010 hc         1 0Y0       0.048200
     32 H8           2.3520    -0.0750     1.2660 h1         1 0Y0       0.031700
     33 H9           3.6890     1.0560     1.1150 h1         1 0Y0       0.031700
     34 H10          2.6930     1.7240    -1.0040 hn         1 0Y0       0.357800
     35 H12          0.7500     1.6250     1.1640 h1         1 0Y0       0.028700
     36 H13          1.9020     2.9270     0.9570 h1         1 0Y0       0.028700
     37 H14          0.9390     3.5800    -1.1830 h1         1 0Y0       0.095700
     38 H15         -0.2730     4.1310     1.1990 h1         1 0Y0       0.052700
     39 H16         -2.1020     4.9170    -0.2570 ho         1 0Y0       0.419000
     40 H17         -1.4170     2.0330     1.3940 h1         1 0Y0       0.062700
     41 H18         -3.1710     3.3140     1.6270 ho         1 0Y0       0.411000
     42 H19         -2.4610     2.0310    -1.4320 h2         1 0Y0       0.112700
     43 H20          0.3390    -0.2200    -0.5160 h5         1 0Y0       0.119800
     44 H21         -6.0360    -0.6480    -0.0960 h5         1 0Y0       0.034100
     45 H22         -2.2450    -4.2160     0.5520 hn         1 0Y0       0.447800
     46 H23         -3.9350    -4.5240     0.6940 hn         1 0Y0       0.447800
@<TRIPOS>BOND
     1     1     2 1   
     2     2     3 1   
     3     2     4 1   
     4     4     5 1   
     5     4     6 1   
     6     4    27 1   
     7     5    28 1   
     8     5    29 1   
     9     6     7 1   
    10     6    30 1   
    11     6    31 1   
    12     7     8 1   
    13     7    32 1   
    14     7    33 1   
    15     8     9 1   
    16     8    34 1   
    17     9    10 1   
    18     9    35 1   
    19     9    36 1   
    20    10    11 1   
    21    10    12 1   
    22    10    37 1   
    23    11    16 1   
    24    12    13 1   
    25    12    14 1   
    26    12    38 1   
    27    13    39 1   
    28    14    15 1   
    29    14    16 1   
    30    14    40 1   
    31    15    41 1   
    32    16    17 1   
    33    16    42 1   
    34    17    18 1   
    35    17    21 1   
    36    18    19 2   
    37    18    43 1   
    38    19    20 1   
    39    20    21 ar  
    40    20    25 ar  
    41    21    22 ar  
    42    22    23 ar  
    43    23    24 ar  
    44    23    44 1   
    45    24    25 ar  
    46    25    26 1   
    47    26    45 1   
    48    26    46 1   
@<TRIPOS>SUBSTRUCTURE
     1 0Y0         1 TEMP              0 ****  ****    0 ROOT
