@<TRIPOS>MOLECULE
0Y0
   46    48     1     0     0
SMALL
No Charge or Current Charge


@<TRIPOS>ATOM
      1 OXT          4.8780    -3.8900     0.0180 o          1 0Y0      -0.730500
      2 C            5.2560    -2.8210    -0.4430 c          1 0Y0       0.693000
      3 O            5.9900    -2.7380    -1.4190 o          1 0Y0      -0.730500
      4 CA           4.9010    -1.4950     0.3490 c3         1 0Y0       0.011500
      5 N            6.0710    -0.6260     0.7440 n8         1 0Y0      -1.006200
      6 CB           3.8360    -0.6770    -0.4280 c3         1 0Y0      -0.053400
      7 CAS          3.1770     0.4500     0.3980 c3         1 0Y0       0.150800
      8 NAR          2.1210     1.1160    -0.3890 n7         1 0Y0      -0.870400
      9 CAF          1.3880     2.1920     0.3210 c3         1 0Y0       0.138800
     10 CAA          0.2940     2.8950    -0.5500 c5         1 0Y0       0.159300
     11 OAE         -0.6480     1.9290    -1.0870 os         1 0Y0      -0.416000
     12 CAB         -0.6030     3.8940     0.2490 c5         1 0Y0       0.108300
     13 OAH         -1.3330     4.8010    -0.5870 oh         1 0Y0      -0.708000
     14 CAC         -1.5840     2.9000     0.9360 c5         1 0Y0       0.080300
     15 OAI         -2.7920     3.5750     1.3480 oh         1 0Y0      -0.696000
     16 CAD         -1.7950     1.8370    -0.2090 c5         1 0Y0       0.324300
     17 N9          -2.0030     0.4410     0.1770 na         1 0Y0      -0.308300
     18 C8          -1.3390    -0.2410     1.2050 cc         1 0Y0       0.427700
     19 N7          -1.8030    -1.5000     1.3380 nd         1 0Y0      -0.549100
     20 C5          -2.7820    -1.5900     0.3450 ca         1 0Y0      -0.090600
     21 C4          -2.9130    -0.4220    -0.3640 ca         1 0Y0       0.109500
     22 N3          -3.8070    -0.2850    -1.3640 nb         1 0Y0      -0.215000
     23 C2          -4.5680    -1.3750    -1.6250 ca         1 0Y0       0.162900
     24 N1          -4.5180    -2.5700    -0.9880 nb         1 0Y0      -0.315000
     25 C6          -3.6160    -2.6740     0.0000 ca         1 0Y0       0.441900
     26 N6          -3.5700    -3.8720     0.6430 nv         1 0Y0      -1.065900
     27 H2           4.4290    -1.8220     1.2860 h1         1 0Y0       0.037700
     28 H3           6.7250    -1.1810     1.3100 hn         1 0Y0       0.382500
     29 H4           6.6180    -0.4190    -0.1020 hn         1 0Y0       0.382500
     30 H6           4.2870    -0.2550    -1.3350 hc         1 0Y0       0.048200
     31 H7           3.0480    -1.3650    -0.7610 hc         1 0Y0       0.048200
     32 H8           2.7500     0.0150     1.3130 h1         1 0Y0       0.031700
     33 H9           3.9430     1.1780     0.6990 h1         1 0Y0       0.031700
     34 H10          2.5520     1.5150    -1.2320 hn         1 0Y0       0.413000
     35 H12          0.9260     1.7840     1.2280 h1         1 0Y0       0.028700
     36 H13          2.0960     2.9650     0.6510 h1         1 0Y0       0.028700
     37 H14          0.8000     3.4000    -1.3840 h1         1 0Y0       0.095700
     38 H15         -0.0160     4.4530     0.9920 h1         1 0Y0       0.052700
     39 H16         -2.2140     4.8610    -0.1400 ho         1 0Y0       0.518000
     40 H17         -1.0960     2.4430     1.8080 h1         1 0Y0       0.062700
     41 H18         -3.2920     2.9650     1.9420 ho         1 0Y0       0.510000
     42 H19         -2.6850     2.1210    -0.7860 h2         1 0Y0       0.112700
     43 H20         -0.5560     0.2130     1.8020 h5         1 0Y0       0.119800
     44 H21         -5.2950    -1.2800    -2.4290 h5         1 0Y0       0.034100
     45 H22         -3.0600    -3.8980     1.5230 hn         1 0Y0       0.503000
     46 H23         -4.3690    -4.4950     0.5590 hn         1 0Y0       0.503000
@<TRIPOS>BOND
     1     1     2 1   
     2     2     3 1   
     3     2     4 1   
     4     4     5 1   
     5     4     6 1   
     6     4    27 1   
     7     5    28 1   
     8     5    29 1   
     9     6     7 1   
    10     6    30 1   
    11     6    31 1   
    12     7     8 1   
    13     7    32 1   
    14     7    33 1   
    15     8     9 1   
    16     8    34 1   
    17     9    10 1   
    18     9    35 1   
    19     9    36 1   
    20    10    11 1   
    21    10    12 1   
    22    10    37 1   
    23    11    16 1   
    24    12    13 1   
    25    12    14 1   
    26    12    38 1   
    27    13    39 1   
    28    14    15 1   
    29    14    16 1   
    30    14    40 1   
    31    15    41 1   
    32    16    17 1   
    33    16    42 1   
    34    17    18 1   
    35    17    21 1   
    36    18    19 2   
    37    18    43 1   
    38    19    20 1   
    39    20    21 ar  
    40    20    25 ar  
    41    21    22 ar  
    42    22    23 ar  
    43    23    24 ar  
    44    23    44 1   
    45    24    25 ar  
    46    25    26 1   
    47    26    45 1   
    48    26    46 1   
@<TRIPOS>SUBSTRUCTURE
     1 0Y0         1 TEMP              0 ****  ****    0 ROOT
