@<TRIPOS>MOLECULE
0Y1
   66    70     1     0     0
SMALL
bcc


@<TRIPOS>ATOM
      1 CBC         -5.6060     1.1380     0.8820 ca         1 0Y1      -0.096800
      2 CBG         -6.0980    -0.0920     0.4290 ca         1 0Y1      -0.067000
      3 CBH         -7.4600    -0.2500     0.2630 ca         1 0Y1      -0.169000
      4 CBI         -8.3490     0.8020     0.5410 ca         1 0Y1      -0.114000
      5 CBJ         -7.8940     2.0270     0.9910 ca         1 0Y1      -0.158000
      6 CBD         -6.5180     2.1820     1.1570 ca         1 0Y1      -0.050200
      7 NBE         -5.7900     3.2540     1.5820 na         1 0Y1      -0.181400
      8 CBF         -4.4620     2.9250     1.5860 cc         1 0Y1      -0.118100
      9 CBB         -4.2910     1.6360     1.1660 cd         1 0Y1      -0.121400
     10 CBA         -3.0030     0.8990     1.0000 c3         1 0Y1      -0.010200
     11 CAZ         -2.6260     0.7200    -0.4710 c3         1 0Y1       0.186800
     12 NAR         -1.4270    -0.0760    -0.6460 n3         1 0Y1      -0.732600
     13 CAS         -1.6520    -1.5040    -0.4810 c3         1 0Y1       0.178800
     14 CB          -0.3650    -2.2280    -0.1160 c3         1 0Y1      -0.056400
     15 CA          -0.4660    -3.7470    -0.1670 c3         1 0Y1       0.010500
     16 C            0.9400    -4.3860    -0.0220 c          1 0Y1       0.908600
     17 O            1.0980    -5.2460     0.8660 o          1 0Y1      -0.841800
     18 OXT          1.8070    -3.9940    -0.8350 o          1 0Y1      -0.841800
     19 N           -1.4730    -4.2090     0.7770 n8         1 0Y1      -0.890800
     20 CAF         -0.7330     0.2390    -1.8770 c3         1 0Y1       0.170800
     21 CAA          0.2490     1.3880    -1.7120 c5         1 0Y1       0.146100
     22 OAE          1.1610     1.1020    -0.6420 os         1 0Y1      -0.378600
     23 CAB          1.1050     1.5990    -2.9610 c5         1 0Y1       0.078100
     24 OAH          1.3740     2.9700    -3.1140 oh         1 0Y1      -0.591800
     25 CAC          2.3790     0.8300    -2.5930 c5         1 0Y1       0.054100
     26 OAI          3.5320     1.2360    -3.2660 oh         1 0Y1      -0.577800
     27 CAD          2.4790     1.1700    -1.1120 c5         1 0Y1       0.265800
     28 N9           3.3200     0.3010    -0.3360 na         1 0Y1      -0.259000
     29 C8           3.2800    -1.0670    -0.2350 cc         1 0Y1       0.444700
     30 N7           4.1530    -1.5440     0.6000 nd         1 0Y1      -0.531100
     31 C5           4.8070    -0.4410     1.0860 ca         1 0Y1      -0.220200
     32 C4           4.3020     0.7170     0.5210 ca         1 0Y1       0.449800
     33 N3           4.7040     1.9600     0.7750 nb         1 0Y1      -0.747000
     34 C2           5.6840     1.9860     1.6620 ca         1 0Y1       0.687900
     35 N1           6.2650     0.9640     2.2830 nb         1 0Y1      -0.846000
     36 C6           5.8480    -0.2800     2.0180 ca         1 0Y1       0.772200
     37 N6           6.4290    -1.3100     2.6350 nv         1 0Y1      -0.962500
     38 H1          -5.4220    -0.9110     0.2100 ha         1 0Y1       0.144000
     39 H2          -7.8530    -1.1950    -0.0890 ha         1 0Y1       0.126000
     40 H3          -9.4110     0.6500     0.4010 ha         1 0Y1       0.119000
     41 H4          -8.5820     2.8360     1.2050 ha         1 0Y1       0.122000
     42 H5          -6.1650     4.1440     1.8620 hn         1 0Y1       0.291700
     43 H6          -3.7210     3.6460     1.8960 h4         1 0Y1       0.161000
     44 H7          -2.1950     1.4350     1.5030 hc         1 0Y1       0.060700
     45 H8          -3.0750    -0.0760     1.4920 hc         1 0Y1       0.060700
     46 H9          -3.4780     0.3020    -1.0330 h1         1 0Y1       0.021200
     47 H10         -2.4520     1.7150    -0.8890 h1         1 0Y1       0.021200
     48 H12         -2.3880    -1.6560     0.3100 h1         1 0Y1       0.029700
     49 H13         -2.0900    -1.9520    -1.3900 h1         1 0Y1       0.029700
     50 H14          0.4250    -1.9260    -0.8010 hc         1 0Y1       0.044700
     51 H15         -0.0390    -1.9070     0.8800 hc         1 0Y1       0.044700
     52 H16         -0.8200    -4.0130    -1.1740 h1         1 0Y1       0.034700
     53 H18         -1.4590    -5.2220     0.7920 hn         1 0Y1       0.328300
     54 H19         -1.1780    -3.9440     1.7110 hn         1 0Y1       0.328300
     55 H21         -0.1900    -0.6400    -2.2330 h1         1 0Y1       0.036700
     56 H22         -1.4310     0.4980    -2.6890 h1         1 0Y1       0.036700
     57 H23         -0.2940     2.3090    -1.4720 h1         1 0Y1       0.076700
     58 H24          0.6210     1.1830    -3.8540 h1         1 0Y1       0.049700
     59 H25          2.1520     3.0570    -3.6770 ho         1 0Y1       0.415000
     60 H26          2.1930    -0.2450    -2.7170 h1         1 0Y1       0.073700
     61 H27          3.5860     0.7640    -4.1020 ho         1 0Y1       0.409000
     62 H28          2.9030     2.1740    -0.9930 h2         1 0Y1       0.101700
     63 H29          2.5860    -1.6780    -0.7930 h5         1 0Y1       0.117800
     64 H30          6.0670     2.9670     1.9210 h5         1 0Y1       0.030100
     65 H31          6.1100    -2.2510     2.4860 hn         1 0Y1       0.448800
     66 H32          7.1500    -1.1530     3.3180 hn         1 0Y1       0.448800
@<TRIPOS>BOND
     1     1     2 ar  
     2     1     6 ar  
     3     1     9 1   
     4     2     3 ar  
     5     2    38 1   
     6     3     4 ar  
     7     3    39 1   
     8     4     5 ar  
     9     4    40 1   
    10     5     6 ar  
    11     5    41 1   
    12     6     7 1   
    13     7     8 1   
    14     7    42 1   
    15     8     9 2   
    16     8    43 1   
    17     9    10 1   
    18    10    11 1   
    19    10    44 1   
    20    10    45 1   
    21    11    12 1   
    22    11    46 1   
    23    11    47 1   
    24    12    13 1   
    25    12    20 1   
    26    13    14 1   
    27    13    48 1   
    28    13    49 1   
    29    14    15 1   
    30    14    50 1   
    31    14    51 1   
    32    15    16 1   
    33    15    19 1   
    34    15    52 1   
    35    16    17 1   
    36    16    18 1   
    37    19    53 1   
    38    19    54 1   
    39    20    21 1   
    40    20    55 1   
    41    20    56 1   
    42    21    22 1   
    43    21    23 1   
    44    21    57 1   
    45    22    27 1   
    46    23    24 1   
    47    23    25 1   
    48    23    58 1   
    49    24    59 1   
    50    25    26 1   
    51    25    27 1   
    52    25    60 1   
    53    26    61 1   
    54    27    28 1   
    55    27    62 1   
    56    28    29 1   
    57    28    32 1   
    58    29    30 2   
    59    29    63 1   
    60    30    31 1   
    61    31    32 ar  
    62    31    36 ar  
    63    32    33 ar  
    64    33    34 ar  
    65    34    35 ar  
    66    34    64 1   
    67    35    36 ar  
    68    36    37 1   
    69    37    65 1   
    70    37    66 1   
@<TRIPOS>SUBSTRUCTURE
     1 0Y1         1 TEMP              0 ****  ****    0 ROOT
