@<TRIPOS>MOLECULE
0Y1
   66    70     1     0     0
SMALL
No Charge or Current Charge


@<TRIPOS>ATOM
      1 CBC         -5.0000     1.3190     1.0670 ca         1 0Y1      -0.096800
      2 CBG         -5.7590     0.4040     0.3240 ca         1 0Y1      -0.049000
      3 CBH         -7.1170     0.7170     0.0940 ca         1 0Y1      -0.151000
      4 CBI         -7.6740     1.9150     0.6050 ca         1 0Y1      -0.096000
      5 CBJ         -6.8780     2.8120     1.3510 ca         1 0Y1      -0.140000
      6 CBD         -5.5350     2.4740     1.5610 ca         1 0Y1      -0.050200
      7 NBE         -4.5580     3.1710     2.2490 na         1 0Y1      -0.231700
      8 CBF         -3.3400     2.4580     2.2100 cc         1 0Y1      -0.168100
      9 CBB         -3.6130     1.3090     1.4760 cd         1 0Y1      -0.121400
     10 CBA         -2.6180     0.2230     1.1510 c3         1 0Y1      -0.010200
     11 CAZ         -2.1500     0.2810    -0.3220 c3         1 0Y1       0.186800
     12 NAR         -1.0090    -0.6160    -0.6780 n3         1 0Y1      -0.732600
     13 CAS         -1.3430    -2.0630    -0.4960 c3         1 0Y1       0.178800
     14 CB          -0.1610    -3.0590    -0.6320 c3         1 0Y1      -0.056400
     15 CA          -0.5550    -4.5420    -0.3910 c3         1 0Y1       0.010500
     16 C            0.5890    -5.5030    -0.9200 c          1 0Y1       0.698000
     17 O            1.5880    -5.6560    -0.2290 o          1 0Y1      -0.736500
     18 OXT          0.3800    -6.1440    -1.9410 o          1 0Y1      -0.736500
     19 N           -0.9990    -4.7640     1.0350 n8         1 0Y1      -1.001200
     20 CAF         -0.4480    -0.3130    -2.0360 c3         1 0Y1       0.170800
     21 CAA         -0.0300     1.1700    -2.3360 c5         1 0Y1       0.169300
     22 OAE          0.7310     1.7470    -1.2420 os         1 0Y1      -0.425000
     23 CAB          0.9140     1.3260    -3.5710 c5         1 0Y1       0.101300
     24 OAH          0.9780     2.6640    -4.0790 oh         1 0Y1      -0.714000
     25 CAC          2.2810     0.9400    -2.9330 c5         1 0Y1       0.077300
     26 OAI          3.3740     1.4790    -3.7100 oh         1 0Y1      -0.700000
     27 CAD          2.1430     1.5680    -1.4920 c5         1 0Y1       0.318300
     28 N9           2.7470     0.8550    -0.3670 na         1 0Y1      -0.288300
     29 C8           2.7640    -0.5310    -0.1770 cc         1 0Y1       0.444700
     30 N7           3.4420    -0.8680     0.9380 nd         1 0Y1      -0.531100
     31 C5           3.8470     0.3670     1.4520 ca         1 0Y1      -0.089600
     32 C4           3.4290     1.4170     0.6750 ca         1 0Y1       0.121500
     33 N3           3.7060     2.6990     0.9880 nb         1 0Y1      -0.221000
     34 C2           4.4220     2.8830     2.1240 ca         1 0Y1       0.161900
     35 N1           4.8800     1.9200     2.9600 nb         1 0Y1      -0.320000
     36 C6           4.5910     0.6550     2.6150 ca         1 0Y1       0.443900
     37 N6           5.0490    -0.3110     3.4550 nv         1 0Y1      -1.072900
     38 H1          -5.3200    -0.5130    -0.0620 ha         1 0Y1       0.126000
     39 H2          -7.7380     0.0320    -0.4790 ha         1 0Y1       0.108000
     40 H3          -8.7210     2.1460     0.4220 ha         1 0Y1       0.101000
     41 H4          -7.2960     3.7340     1.7480 ha         1 0Y1       0.104000
     42 H5          -4.7020     4.0630     2.7120 hn         1 0Y1       0.342000
     43 H6          -2.4250     2.8080     2.6810 h4         1 0Y1       0.211000
     44 H7          -1.7410     0.3120     1.8040 hc         1 0Y1       0.060700
     45 H8          -3.0730    -0.7500     1.3640 hc         1 0Y1       0.060700
     46 H9          -3.0080     0.0660    -0.9740 h1         1 0Y1       0.021200
     47 H10         -1.8690     1.3250    -0.5050 h1         1 0Y1       0.021200
     48 H12         -1.7630    -2.2170     0.5040 h1         1 0Y1       0.029700
     49 H13         -2.1230    -2.3510    -1.2150 h1         1 0Y1       0.029700
     50 H14          0.2540    -2.9930    -1.6430 hc         1 0Y1       0.044700
     51 H15          0.6380    -2.7740     0.0630 hc         1 0Y1       0.044700
     52 H16         -1.4320    -4.7440    -1.0210 h1         1 0Y1       0.034700
     53 H18         -1.3090    -5.7380     1.1410 hn         1 0Y1       0.383500
     54 H19         -0.1690    -4.7200     1.6400 hn         1 0Y1       0.383500
     55 H21          0.4340    -0.9370    -2.2090 h1         1 0Y1       0.036700
     56 H22         -1.1800    -0.6030    -2.8020 h1         1 0Y1       0.036700
     57 H23         -0.9470     1.7580    -2.4730 h1         1 0Y1       0.076700
     58 H24          0.6390     0.6290    -4.3760 h1         1 0Y1       0.049700
     59 H25          1.9410     2.7770    -4.2810 ho         1 0Y1       0.514000
     60 H26          2.3680    -0.1530    -2.8760 h1         1 0Y1       0.073700
     61 H27          4.2090     1.0550    -3.3950 ho         1 0Y1       0.508000
     62 H28          2.6130     2.5600    -1.4980 h2         1 0Y1       0.101700
     63 H29          2.2860    -1.2220    -0.8620 h5         1 0Y1       0.117800
     64 H30          4.6520     3.9130     2.3930 h5         1 0Y1       0.030100
     65 H31          4.6570    -1.2420     3.3380 hn         1 0Y1       0.504000
     66 H32          5.3090    -0.0420     4.4000 hn         1 0Y1       0.504000
@<TRIPOS>BOND
     1     1     2 ar  
     2     1     6 ar  
     3     1     9 1   
     4     2     3 ar  
     5     2    38 1   
     6     3     4 ar  
     7     3    39 1   
     8     4     5 ar  
     9     4    40 1   
    10     5     6 ar  
    11     5    41 1   
    12     6     7 1   
    13     7     8 1   
    14     7    42 1   
    15     8     9 2   
    16     8    43 1   
    17     9    10 1   
    18    10    11 1   
    19    10    44 1   
    20    10    45 1   
    21    11    12 1   
    22    11    46 1   
    23    11    47 1   
    24    12    13 1   
    25    12    20 1   
    26    13    14 1   
    27    13    48 1   
    28    13    49 1   
    29    14    15 1   
    30    14    50 1   
    31    14    51 1   
    32    15    16 1   
    33    15    19 1   
    34    15    52 1   
    35    16    17 1   
    36    16    18 1   
    37    19    53 1   
    38    19    54 1   
    39    20    21 1   
    40    20    55 1   
    41    20    56 1   
    42    21    22 1   
    43    21    23 1   
    44    21    57 1   
    45    22    27 1   
    46    23    24 1   
    47    23    25 1   
    48    23    58 1   
    49    24    59 1   
    50    25    26 1   
    51    25    27 1   
    52    25    60 1   
    53    26    61 1   
    54    27    28 1   
    55    27    62 1   
    56    28    29 1   
    57    28    32 1   
    58    29    30 2   
    59    29    63 1   
    60    30    31 1   
    61    31    32 ar  
    62    31    36 ar  
    63    32    33 ar  
    64    33    34 ar  
    65    34    35 ar  
    66    34    64 1   
    67    35    36 ar  
    68    36    37 1   
    69    37    65 1   
    70    37    66 1   
@<TRIPOS>SUBSTRUCTURE
     1 0Y1         1 TEMP              0 ****  ****    0 ROOT
