@<TRIPOS>MOLECULE
0Y2
   65    69     1     0     0
SMALL
No Charge or Current Charge


@<TRIPOS>ATOM
      1 CBC         -4.7530    -1.2490    -0.9540 ca         1 0Y2      -0.067800
      2 CBG         -5.4320    -0.1670    -0.3650 ca         1 0Y2      -0.063000
      3 CBH         -6.8120    -0.2910    -0.1080 ca         1 0Y2      -0.120000
      4 CBI         -7.4920    -1.4830    -0.4410 ca         1 0Y2      -0.107000
      5 CBJ         -6.7940    -2.5550    -1.0320 ca         1 0Y2      -0.090000
      6 CBD         -5.4200    -2.4120    -1.2790 ca         1 0Y2      -0.155000
      7 S1E         -4.3780    -3.6540    -2.0160 ss         1 0Y2       0.015400
      8 CBF         -2.9920    -2.5400    -1.8710 cc         1 0Y2      -0.157400
      9 CBB         -3.3460    -1.3310    -1.2980 cd         1 0Y2      -0.053400
     10 CBA         -2.3560    -0.2180    -1.0560 c3         1 0Y2      -0.028200
     11 CAZ         -1.9220    -0.1370     0.4260 c3         1 0Y2       0.192800
     12 NAR         -0.7800     0.7800     0.7140 n3         1 0Y2      -0.742600
     13 CAS         -1.1030     2.2070     0.4030 c3         1 0Y2       0.182800
     14 CB           0.0840     3.2040     0.4560 c3         1 0Y2      -0.058400
     15 CA          -0.2990     4.6630     0.0890 c3         1 0Y2       0.010500
     16 C            0.8500     5.6590     0.5370 c          1 0Y2       0.698000
     17 O            1.8490     5.7490    -0.1650 o          1 0Y2      -0.736000
     18 OXT          0.6460     6.3830     1.5020 o          1 0Y2      -0.736000
     19 N           -0.7410     4.7660    -1.3500 n8         1 0Y2      -1.002200
     20 CAF         -0.2350     0.5960     2.0990 c3         1 0Y2       0.176800
     21 CAA          0.1650    -0.8590     2.5370 c5         1 0Y2       0.168300
     22 OAE          0.9050    -1.5530     1.4990 os         1 0Y2      -0.425000
     23 CAB          1.1210    -0.9100     3.7710 c5         1 0Y2       0.101300
     24 OAH          1.1730    -2.1950     4.4030 oh         1 0Y2      -0.713000
     25 CAC          2.4870    -0.6080     3.0850 c5         1 0Y2       0.078300
     26 OAI          3.5790    -1.0960     3.8950 oh         1 0Y2      -0.701000
     27 CAD          2.3220    -1.3560     1.7060 c5         1 0Y2       0.319300
     28 N9           2.9040    -0.7450     0.5110 na         1 0Y2      -0.290300
     29 C8           2.9410     0.6220     0.2130 cc         1 0Y2       0.440700
     30 N7           3.5890     0.8560    -0.9450 nd         1 0Y2      -0.524100
     31 C5           3.9520    -0.4230    -1.3740 ca         1 0Y2      -0.088600
     32 C4           3.5400    -1.4000    -0.5050 ca         1 0Y2       0.122500
     33 N3           3.7820    -2.7080    -0.7260 nb         1 0Y2      -0.219000
     34 C2           4.4550    -2.9960    -1.8660 ca         1 0Y2       0.161900
     35 N1           4.9040    -2.1100    -2.7880 nb         1 0Y2      -0.317000
     36 C6           4.6510    -0.8160    -2.5350 ca         1 0Y2       0.440900
     37 N6           5.1000     0.0720    -3.4610 nv         1 0Y2      -1.066900
     38 H1          -4.9090     0.7520    -0.1090 ha         1 0Y2       0.132000
     39 H2          -7.3550     0.5340     0.3470 ha         1 0Y2       0.114000
     40 H3          -8.5570    -1.5740    -0.2410 ha         1 0Y2       0.105000
     41 H4          -7.3120    -3.4750    -1.2910 ha         1 0Y2       0.113000
     42 H5          -2.0180    -2.8650    -2.2160 h4         1 0Y2       0.217000
     43 H6          -1.4630    -0.3700    -1.6740 hc         1 0Y2       0.067200
     44 H7          -2.7960     0.7320    -1.3750 hc         1 0Y2       0.067200
     45 H8          -2.7910     0.1460     1.0350 h1         1 0Y2       0.022200
     46 H9          -1.6560    -1.1610     0.7150 h1         1 0Y2       0.022200
     47 H11         -1.5180     2.2760    -0.6090 h1         1 0Y2       0.029200
     48 H12         -1.8850     2.5630     1.0880 h1         1 0Y2       0.029200
     49 H13          0.4970     3.2210     1.4710 hc         1 0Y2       0.045200
     50 H14          0.8820     2.8560    -0.2100 hc         1 0Y2       0.045200
     51 H15         -1.1760     4.9240     0.7000 h1         1 0Y2       0.034700
     52 H17         -1.0440     5.7290    -1.5390 hn         1 0Y2       0.384000
     53 H18          0.0890     4.6650    -1.9480 hn         1 0Y2       0.384000
     54 H20          0.6530     1.2240     2.2240 h1         1 0Y2       0.036200
     55 H21         -0.9690     0.9610     2.8290 h1         1 0Y2       0.036200
     56 H22         -0.7600    -1.4150     2.7380 h1         1 0Y2       0.076700
     57 H23          0.8650    -0.1360     4.5090 h1         1 0Y2       0.048700
     58 H24          2.1390    -2.3040     4.5970 ho         1 0Y2       0.515000
     59 H25          2.5910     0.4750     2.9330 h1         1 0Y2       0.071700
     60 H26          4.4170    -0.7110     3.5400 ho         1 0Y2       0.509000
     61 H27          2.7910    -2.3440     1.7870 h2         1 0Y2       0.101700
     62 H28          2.5010     1.3740     0.8560 h5         1 0Y2       0.110800
     63 H29          4.6570    -4.0480    -2.0600 h5         1 0Y2       0.031100
     64 H30          4.7320     1.0190    -3.4050 hn         1 0Y2       0.501500
     65 H31          5.3280    -0.2750    -4.3890 hn         1 0Y2       0.501500
@<TRIPOS>BOND
     1     1     2 ar  
     2     1     6 ar  
     3     1     9 1   
     4     2     3 ar  
     5     2    38 1   
     6     3     4 ar  
     7     3    39 1   
     8     4     5 ar  
     9     4    40 1   
    10     5     6 ar  
    11     5    41 1   
    12     6     7 1   
    13     7     8 1   
    14     8     9 2   
    15     8    42 1   
    16     9    10 1   
    17    10    11 1   
    18    10    43 1   
    19    10    44 1   
    20    11    12 1   
    21    11    45 1   
    22    11    46 1   
    23    12    13 1   
    24    12    20 1   
    25    13    14 1   
    26    13    47 1   
    27    13    48 1   
    28    14    15 1   
    29    14    49 1   
    30    14    50 1   
    31    15    16 1   
    32    15    19 1   
    33    15    51 1   
    34    16    17 1   
    35    16    18 1   
    36    19    52 1   
    37    19    53 1   
    38    20    21 1   
    39    20    54 1   
    40    20    55 1   
    41    21    22 1   
    42    21    23 1   
    43    21    56 1   
    44    22    27 1   
    45    23    24 1   
    46    23    25 1   
    47    23    57 1   
    48    24    58 1   
    49    25    26 1   
    50    25    27 1   
    51    25    59 1   
    52    26    60 1   
    53    27    28 1   
    54    27    61 1   
    55    28    29 1   
    56    28    32 1   
    57    29    30 2   
    58    29    62 1   
    59    30    31 1   
    60    31    32 ar  
    61    31    36 ar  
    62    32    33 ar  
    63    33    34 ar  
    64    34    35 ar  
    65    34    63 1   
    66    35    36 ar  
    67    36    37 1   
    68    37    64 1   
    69    37    65 1   
@<TRIPOS>SUBSTRUCTURE
     1 0Y2         1 TEMP              0 ****  ****    0 ROOT
