@<TRIPOS>MOLECULE
0Y2
   65    69     1     0     0
SMALL
abcg2


@<TRIPOS>ATOM
      1 CBC         -5.3620    -1.0400    -0.7450 ca         1 0Y2      -0.067800
      2 CBG         -5.6860     0.3160    -0.6130 ca         1 0Y2      -0.063000
      3 CBH         -7.0110     0.7010    -0.5700 ca         1 0Y2      -0.120000
      4 CBI         -8.0360    -0.2490    -0.6590 ca         1 0Y2      -0.107000
      5 CBJ         -7.7450    -1.5930    -0.7960 ca         1 0Y2      -0.090000
      6 CBD         -6.4070    -1.9760    -0.8390 ca         1 0Y2      -0.155000
      7 S1E         -5.7890    -3.5870    -1.0100 ss         1 0Y2       0.015400
      8 CBF         -4.1600    -3.0020    -0.9550 cc         1 0Y2      -0.157400
      9 CBB         -4.0610    -1.6590    -0.8140 cd         1 0Y2      -0.053400
     10 CBA         -2.7720    -0.9120    -0.6920 c3         1 0Y2      -0.028200
     11 CAZ         -2.4610    -0.5420     0.7610 c3         1 0Y2       0.192800
     12 NAR         -1.2430     0.2320     0.8770 n3         1 0Y2      -0.742600
     13 CAS         -1.4170     1.6390     0.5580 c3         1 0Y2       0.182800
     14 CB          -0.1020     2.2960     0.1680 c3         1 0Y2      -0.058400
     15 CA          -0.2100     3.7890    -0.1170 c3         1 0Y2       0.010500
     16 C            1.2020     4.4250    -0.2230 c          1 0Y2       0.698000
     17 O            1.4530     5.1160    -1.2280 o          1 0Y2      -0.736000
     18 OXT          1.9730     4.2110     0.7400 o          1 0Y2      -0.736000
     19 N           -1.0920     4.0160    -1.2530 n8         1 0Y2      -1.002200
     20 CAF         -0.5390    -0.0040     2.1190 c3         1 0Y2       0.176800
     21 CAA          0.4250    -1.1760     2.0150 c5         1 0Y2       0.168300
     22 OAE          1.3020    -0.9920     0.8980 os         1 0Y2      -0.425000
     23 CAB          1.3210    -1.3000     3.2460 c5         1 0Y2       0.101300
     24 OAH          1.5960    -2.6570     3.4860 oh         1 0Y2      -0.713000
     25 CAC          2.5820    -0.5610     2.7820 c5         1 0Y2       0.078300
     26 OAI          3.7570    -0.9230     3.4440 oh         1 0Y2      -0.701000
     27 CAD          2.6350    -1.0040     1.3260 c5         1 0Y2       0.319300
     28 N9           3.4330    -0.1780     0.4610 na         1 0Y2      -0.290300
     29 C8           3.4170     1.1880     0.3240 cc         1 0Y2       0.440700
     30 N7           4.2110     1.6190    -0.6100 nd         1 0Y2      -0.524100
     31 C5           4.7810     0.4850    -1.1290 ca         1 0Y2      -0.088600
     32 C4           4.3070    -0.6440    -0.4830 ca         1 0Y2       0.122500
     33 N3           4.6450    -1.9040    -0.7440 nb         1 0Y2      -0.219000
     34 C2           5.5220    -1.9820    -1.7300 ca         1 0Y2       0.161900
     35 N1           6.0600    -0.9920    -2.4380 nb         1 0Y2      -0.317000
     36 C6           5.7090     0.2690    -2.1630 ca         1 0Y2       0.440900
     37 N6           6.2570     1.2680    -2.8610 nv         1 0Y2      -1.066900
     38 H1          -4.9020     1.0600    -0.5460 ha         1 0Y2       0.132000
     39 H2          -7.2610     1.7480    -0.4650 ha         1 0Y2       0.114000
     40 H3          -9.0690     0.0710    -0.6210 ha         1 0Y2       0.105000
     41 H4          -8.5360    -2.3270    -0.8690 ha         1 0Y2       0.113000
     42 H5          -3.3440    -3.7060    -1.0290 h4         1 0Y2       0.217000
     43 H6          -1.9500    -1.5180    -1.0760 hc         1 0Y2       0.067200
     44 H7          -2.8070    -0.0130    -1.3130 hc         1 0Y2       0.067200
     45 H8          -3.3210    -0.0240     1.2170 h1         1 0Y2       0.022200
     46 H9          -2.3460    -1.4740     1.3190 h1         1 0Y2       0.022200
     47 H11         -2.1150     1.7240    -0.2760 h1         1 0Y2       0.029200
     48 H12         -1.8740     2.1960     1.3960 h1         1 0Y2       0.029200
     49 H13          0.6200     2.1700     0.9730 hc         1 0Y2       0.045200
     50 H14          0.3140     1.7740    -0.7010 hc         1 0Y2       0.045200
     51 H15         -0.6850     4.2540     0.7590 h1         1 0Y2       0.034700
     52 H17         -1.0850     5.0060    -1.4700 hn         1 0Y2       0.384000
     53 H18         -0.6750     3.5820    -2.0700 hn         1 0Y2       0.384000
     54 H20          0.0190     0.8910     2.4030 h1         1 0Y2       0.036200
     55 H21         -1.2260    -0.1980     2.9560 h1         1 0Y2       0.036200
     56 H22         -0.1400    -2.1040     1.8690 h1         1 0Y2       0.076700
     57 H23          0.8690    -0.8200     4.1240 h1         1 0Y2       0.048700
     58 H24          2.3910    -2.7070     4.0290 ho         1 0Y2       0.515000
     59 H25          2.4000     0.5190     2.8420 h1         1 0Y2       0.071700
     60 H26          3.8370    -0.3960     4.2450 ho         1 0Y2       0.509000
     61 H27          3.0730    -2.0070     1.2620 h2         1 0Y2       0.101700
     62 H28          2.7990     1.8300     0.9320 h5         1 0Y2       0.110800
     63 H29          5.8480    -2.9800    -2.0020 h5         1 0Y2       0.031100
     64 H30          5.9250     2.2100    -2.7490 hn         1 0Y2       0.501500
     65 H31          6.8260     1.0640    -3.6640 hn         1 0Y2       0.501500
@<TRIPOS>BOND
     1     1     2 ar  
     2     1     6 ar  
     3     1     9 1   
     4     2     3 ar  
     5     2    38 1   
     6     3     4 ar  
     7     3    39 1   
     8     4     5 ar  
     9     4    40 1   
    10     5     6 ar  
    11     5    41 1   
    12     6     7 1   
    13     7     8 1   
    14     8     9 2   
    15     8    42 1   
    16     9    10 1   
    17    10    11 1   
    18    10    43 1   
    19    10    44 1   
    20    11    12 1   
    21    11    45 1   
    22    11    46 1   
    23    12    13 1   
    24    12    20 1   
    25    13    14 1   
    26    13    47 1   
    27    13    48 1   
    28    14    15 1   
    29    14    49 1   
    30    14    50 1   
    31    15    16 1   
    32    15    19 1   
    33    15    51 1   
    34    16    17 1   
    35    16    18 1   
    36    19    52 1   
    37    19    53 1   
    38    20    21 1   
    39    20    54 1   
    40    20    55 1   
    41    21    22 1   
    42    21    23 1   
    43    21    56 1   
    44    22    27 1   
    45    23    24 1   
    46    23    25 1   
    47    23    57 1   
    48    24    58 1   
    49    25    26 1   
    50    25    27 1   
    51    25    59 1   
    52    26    60 1   
    53    27    28 1   
    54    27    61 1   
    55    28    29 1   
    56    28    32 1   
    57    29    30 2   
    58    29    62 1   
    59    30    31 1   
    60    31    32 ar  
    61    31    36 ar  
    62    32    33 ar  
    63    33    34 ar  
    64    34    35 ar  
    65    34    63 1   
    66    35    36 ar  
    67    36    37 1   
    68    37    64 1   
    69    37    65 1   
@<TRIPOS>SUBSTRUCTURE
     1 0Y2         1 TEMP              0 ****  ****    0 ROOT
