@<TRIPOS>MOLECULE
0Y3
  144   148     1     0     0
SMALL
No Charge or Current Charge


@<TRIPOS>ATOM
      1 C2           5.1370     2.4530    23.6220 ca         1 0Y3      -0.314000
      2 C3           6.3190     1.8430    24.0880 ca         1 0Y3      -0.013500
      3 C4           6.9050     0.7920    23.3610 ca         1 0Y3      -0.122250
      4 C5           6.3280     0.3060    22.1570 cp         1 0Y3       0.035000
      5 C6           5.1300     0.9290    21.7170 ca         1 0Y3      -0.122250
      6 C7           4.5490     1.9930    22.4270 ca         1 0Y3      -0.013500
      7 C8           6.9570    -0.8220    21.3800 cp         1 0Y3      -0.055000
      8 C9           6.7380    -0.9680    19.9830 ca         1 0Y3      -0.091250
      9 C11          8.1120    -2.9760    19.9100 ca         1 0Y3      -0.096000
     10 C12          8.3560    -2.8520    21.2860 ca         1 0Y3      -0.111000
     11 C13          7.7910    -1.7880    22.0100 ca         1 0Y3      -0.091250
     12 N16          3.0190     3.1760    25.3070 n3         1 0Y3      -0.548000
     13 C75          1.3210    -3.9670    25.3400 c          1 0Y3       0.558600
     14 N76          0.6330    -3.1140    26.1930 ns         1 0Y3      -0.375900
     15 O77         -0.2460    -2.1020    25.6560 oh         1 0Y3      -0.437100
     16 C54          2.2820    -4.9850    26.0300 c3         1 0Y3       0.174500
     17 N55          3.6940    -4.4940    26.1370 n3         1 0Y3      -0.548000
     18 S60          4.5470    -4.8760    27.5840 sy         1 0Y3       1.201600
     19 O62          5.8570    -4.2180    27.4930 o          1 0Y3      -0.532500
     20 C63          3.5730    -3.9600    28.7930 ca         1 0Y3      -0.314000
     21 C68          2.6710    -4.6250    29.6470 ca         1 0Y3      -0.013500
     22 C67          1.8920    -3.8860    30.5540 ca         1 0Y3      -0.122250
     23 C66          1.9950    -2.4750    30.6350 cp         1 0Y3       0.035000
     24 C69          1.1530    -1.6880    31.5920 cp         1 0Y3      -0.055000
     25 C74          0.8170    -2.2020    32.8700 ca         1 0Y3      -0.091250
     26 C73          0.0270    -1.4610    33.7670 ca         1 0Y3      -0.111000
     27 C72         -0.4460    -0.1910    33.4030 ca         1 0Y3      -0.096000
     28 C71         -0.1280     0.3390    32.1420 ca         1 0Y3      -0.111000
     29 C70          0.6630    -0.4020    31.2470 ca         1 0Y3      -0.091250
     30 C65          2.9180    -1.8310    29.7760 ca         1 0Y3      -0.122250
     31 C64          3.6970    -2.5590    28.8630 ca         1 0Y3      -0.013500
     32 O61          4.4200    -6.3190    27.8210 o          1 0Y3      -0.532500
     33 O56          4.4470    -4.8830    24.9130 os         1 0Y3      -0.186300
     34 C57          4.6340    -3.7590    24.0260 c3         1 0Y3       0.131800
     35 C59          5.6340    -2.7580    24.6480 c3         1 0Y3      -0.110850
     36 C58          5.1320    -4.3220    22.6820 c3         1 0Y3      -0.110850
     37 C51          2.1430    -6.4220    25.4340 c3         1 0Y3      -0.084400
     38 C50          0.7700    -7.0900    25.6690 c3         1 0Y3       0.106000
     39 N49         -0.2910    -6.5120    24.8420 ns         1 0Y3      -0.508400
     40 C48         -1.6350    -6.6030    25.1170 c          1 0Y3       0.598600
     41 O53         -2.0600    -7.1750    26.1110 o          1 0Y3      -0.607600
     42 C47         -2.5580    -5.9870    24.0600 c3         1 0Y3      -0.151900
     43 C46         -3.2270    -4.6800    24.5530 c3         1 0Y3      -0.083400
     44 C45         -4.2550    -4.1320    23.5430 c3         1 0Y3       0.102500
     45 N44         -4.9180    -2.9190    24.0270 ns         1 0Y3      -0.500900
     46 O52         -3.4870    -1.4120    23.1140 o          1 0Y3      -0.609600
     47 C39         -5.3460    -0.5130    24.3420 ca         1 0Y3      -0.155100
     48 C38         -5.0920     0.8230    23.9500 ca         1 0Y3      -0.043000
     49 C40         -6.3950    -0.7640    25.2580 ca         1 0Y3      -0.054000
     50 C41         -7.1650     0.2940    25.7620 ca         1 0Y3      -0.125000
     51 C42         -6.9090     1.6130    25.3600 ca         1 0Y3      -0.054000
     52 C37         -5.8720     1.8980    24.4460 ca         1 0Y3      -0.155100
     53 C34         -5.6290     3.3370    24.0330 c          1 0Y3       0.606200
     54 O35         -6.2550     4.2670    24.5240 o          1 0Y3      -0.609600
     55 N33         -4.6600     3.5530    23.0750 ns         1 0Y3      -0.500900
     56 C32         -4.2250     4.8690    22.5920 c3         1 0Y3       0.102500
     57 C31         -2.9070     5.3270    23.2530 c3         1 0Y3      -0.083400
     58 C30         -3.0240     5.6330    24.7680 c3         1 0Y3      -0.151900
     59 C29         -1.6580     5.9200    25.4030 c          1 0Y3       0.598600
     60 O36         -1.0340     6.9490    25.1950 o          1 0Y3      -0.607600
     61 N28         -1.2110     4.9450    26.2670 ns         1 0Y3      -0.508400
     62 C26          1.0160     3.8600    26.6770 c3         1 0Y3      -0.084400
     63 C20          1.8000     4.0490    25.3490 c3         1 0Y3       0.174500
     64 C21          0.8640     3.9610    24.0890 c          1 0Y3       0.558600
     65 O25         -0.0430     3.1430    23.9620 o          1 0Y3      -0.598600
     66 N22          1.0960     4.8970    23.0880 ns         1 0Y3      -0.375900
     67 O23          0.4420     4.7480    21.8060 oh         1 0Y3      -0.437100
     68 O17          2.6090     1.8630    24.7440 os         1 0Y3      -0.186300
     69 C19          3.0830     0.7480    25.5270 c3         1 0Y3       0.131800
     70 C24          2.8850    -0.5030    24.6540 c3         1 0Y3      -0.110850
     71 C23          2.2770     0.6570    26.8400 c3         1 0Y3      -0.110850
     72 S1           4.4030     3.8470    24.5150 sy         1 0Y3       1.201600
     73 O14          3.8940     4.7910    23.5120 o          1 0Y3      -0.532500
     74 O15          5.3270     4.2700    25.5750 o          1 0Y3      -0.532500
     75 C10          7.3060    -2.0310    19.2580 ca         1 0Y3      -0.111000
     76 H1           6.7990     2.1870    25.0030 ha         1 0Y3       0.133000
     77 H2           7.8300     0.3650    23.7350 ha         1 0Y3       0.127500
     78 H3           4.6320     0.5830    20.8160 ha         1 0Y3       0.127500
     79 H4           3.6340     2.4510    22.0520 ha         1 0Y3       0.133000
     80 H5           6.1330    -0.2450    19.4420 ha         1 0Y3       0.114750
     81 H6           8.5500    -3.8000    19.3500 ha         1 0Y3       0.116500
     82 H7           8.9820    -3.5820    21.7950 ha         1 0Y3       0.116250
     83 H8           7.9940    -1.7300    23.0750 ha         1 0Y3       0.114750
     84 H9           0.8580    -3.0540    27.1860 hn         1 0Y3       0.362500
     85 H10         -0.1030    -2.1980    24.6830 ho         1 0Y3       0.478500
     86 H11          1.8800    -5.0590    27.0480 h1         1 0Y3       0.080700
     87 H12          2.5600    -5.7080    29.6070 ha         1 0Y3       0.133000
     88 H13          1.1880    -4.4150    31.1910 ha         1 0Y3       0.127500
     89 H14          1.1840    -3.1790    33.1770 ha         1 0Y3       0.114750
     90 H15         -0.2160    -1.8730    34.7440 ha         1 0Y3       0.116250
     91 H16         -1.0580     0.3830    34.0970 ha         1 0Y3       0.116500
     92 H17         -0.4960     1.3220    31.8570 ha         1 0Y3       0.116250
     93 H18          0.8850     0.0220    30.2700 ha         1 0Y3       0.114750
     94 H19          3.0400    -0.7520    29.8240 ha         1 0Y3       0.127500
     95 H20          4.3920    -2.0320    28.2110 ha         1 0Y3       0.133000
     96 H21          3.6790    -3.2500    23.8480 h1         1 0Y3       0.072200
     97 H22          5.2670    -2.3640    25.6010 hc         1 0Y3       0.051367
     98 H23          6.6090    -3.2300    24.8150 hc         1 0Y3       0.051367
     99 H24          5.7690    -1.9030    23.9790 hc         1 0Y3       0.051367
    100 H25          4.4100    -5.0410    22.2770 hc         1 0Y3       0.051367
    101 H26          5.2560    -3.5150    21.9500 hc         1 0Y3       0.051367
    102 H27          6.0970    -4.8280    22.8030 hc         1 0Y3       0.051367
    103 H28          2.9000    -7.0720    25.8840 hc         1 0Y3       0.070200
    104 H29          2.3600    -6.4060    24.3590 hc         1 0Y3       0.070200
    105 H30          0.4970    -7.0110    26.7300 h1         1 0Y3       0.058200
    106 H31          0.8450    -8.1580    25.4220 h1         1 0Y3       0.058200
    107 H32         -0.0310    -6.0110    23.9990 hn         1 0Y3       0.313000
    108 H33         -3.3460    -6.7130    23.8300 hc         1 0Y3       0.058450
    109 H34         -1.9890    -5.7610    23.1500 hc         1 0Y3       0.058450
    110 H35         -2.4570    -3.9220    24.7410 hc         1 0Y3       0.062700
    111 H36         -3.7330    -4.8690    25.5080 hc         1 0Y3       0.062700
    112 H37         -5.0240    -4.8940    23.3590 h1         1 0Y3       0.055200
    113 H38         -3.7590    -3.9220    22.5860 h1         1 0Y3       0.055200
    114 H39         -5.7720    -3.0210    24.5590 hn         1 0Y3       0.317500
    115 H40         -4.2830     1.0110    23.2500 ha         1 0Y3       0.127000
    116 H41         -6.6210    -1.7710    25.6010 ha         1 0Y3       0.131000
    117 H42         -7.9670     0.0910    26.4680 ha         1 0Y3       0.124000
    118 H43         -7.5250     2.4150    25.7630 ha         1 0Y3       0.131000
    119 H44         -4.1980     2.7340    22.7030 hn         1 0Y3       0.317500
    120 H45         -5.0100     5.6160    22.7680 h1         1 0Y3       0.055200
    121 H46         -4.0730     4.7990    21.5060 h1         1 0Y3       0.055200
    122 H47         -2.1520     4.5500    23.0940 hc         1 0Y3       0.062700
    123 H48         -2.5460     6.2250    22.7350 hc         1 0Y3       0.062700
    124 H49         -3.6640     6.5140    24.8950 hc         1 0Y3       0.058450
    125 H50         -3.4830     4.7750    25.2710 hc         1 0Y3       0.058450
    126 H51         -1.8040     4.1300    26.3700 hn         1 0Y3       0.313000
    127 H54          0.4790     2.9050    26.6660 hc         1 0Y3       0.070200
    128 H55          1.7480     3.7980    27.4910 hc         1 0Y3       0.070200
    129 H56          2.1370     5.0940    25.3880 h1         1 0Y3       0.080700
    130 H57          2.0060     5.3630    23.0720 hn         1 0Y3       0.362500
    131 H58          0.1000     3.8210    21.8470 ho         1 0Y3       0.478500
    132 H59          4.1500     0.8520    25.7610 h1         1 0Y3       0.072200
    133 H60          3.0800    -1.4100    25.2370 hc         1 0Y3       0.051367
    134 H61          1.8590    -0.5550    24.2740 hc         1 0Y3       0.051367
    135 H62          3.5700    -0.4870    23.7990 hc         1 0Y3       0.051367
    136 H63          2.5260    -0.2660    27.3740 hc         1 0Y3       0.051367
    137 H64          2.5130     1.4960    27.5040 hc         1 0Y3       0.051367
    138 H65          1.2000     0.6480    26.6380 hc         1 0Y3       0.051367
    139 H66          7.1220    -2.1190    18.1890 ha         1 0Y3       0.116250
    140 C27          0.0330     4.9970    27.0390 c3         1 0Y3       0.106000
    141 C43         -4.4950    -1.6310    23.7720 c          1 0Y3       0.606200
    142 O78          1.1250    -3.9120    24.1290 o          1 0Y3      -0.598600
    143 H52          0.5250     5.9710    26.9140 h1         1 0Y3       0.058200
    144 H53         -0.2350     4.9020    28.0990 h1         1 0Y3       0.058200
@<TRIPOS>BOND
     1     1     2 ar  
     2     1     6 ar  
     3     1    72 1   
     4     2     3 ar  
     5     2    76 1   
     6     3     4 ar  
     7     3    77 1   
     8     4     5 ar  
     9     4     7 1   
    10     5     6 ar  
    11     5    78 1   
    12     6    79 1   
    13     7     8 ar  
    14     7    11 ar  
    15     8    75 ar  
    16     8    80 1   
    17     9    10 ar  
    18     9    75 ar  
    19     9    81 1   
    20    10    11 ar  
    21    10    82 1   
    22    11    83 1   
    23    12    63 1   
    24    12    68 1   
    25    12    72 1   
    26    13    14 1   
    27    13    16 1   
    28    13   142 2   
    29    14    15 1   
    30    14    84 1   
    31    15    85 1   
    32    16    17 1   
    33    16    37 1   
    34    16    86 1   
    35    17    18 1   
    36    17    33 1   
    37    18    19 2   
    38    18    20 1   
    39    18    32 2   
    40    20    21 ar  
    41    20    31 ar  
    42    21    22 ar  
    43    21    87 1   
    44    22    23 ar  
    45    22    88 1   
    46    23    24 1   
    47    23    30 ar  
    48    24    25 ar  
    49    24    29 ar  
    50    25    26 ar  
    51    25    89 1   
    52    26    27 ar  
    53    26    90 1   
    54    27    28 ar  
    55    27    91 1   
    56    28    29 ar  
    57    28    92 1   
    58    29    93 1   
    59    30    31 ar  
    60    30    94 1   
    61    31    95 1   
    62    33    34 1   
    63    34    35 1   
    64    34    36 1   
    65    34    96 1   
    66    35    97 1   
    67    35    98 1   
    68    35    99 1   
    69    36   100 1   
    70    36   101 1   
    71    36   102 1   
    72    37    38 1   
    73    37   103 1   
    74    37   104 1   
    75    38    39 1   
    76    38   105 1   
    77    38   106 1   
    78    39    40 1   
    79    39   107 1   
    80    40    41 2   
    81    40    42 1   
    82    42    43 1   
    83    42   108 1   
    84    42   109 1   
    85    43    44 1   
    86    43   110 1   
    87    43   111 1   
    88    44    45 1   
    89    44   112 1   
    90    44   113 1   
    91    45   114 1   
    92    45   141 1   
    93    46   141 2   
    94    47    48 ar  
    95    47    49 ar  
    96    47   141 1   
    97    48    52 ar  
    98    48   115 1   
    99    49    50 ar  
   100    49   116 1   
   101    50    51 ar  
   102    50   117 1   
   103    51    52 ar  
   104    51   118 1   
   105    52    53 1   
   106    53    54 2   
   107    53    55 1   
   108    55    56 1   
   109    55   119 1   
   110    56    57 1   
   111    56   120 1   
   112    56   121 1   
   113    57    58 1   
   114    57   122 1   
   115    57   123 1   
   116    58    59 1   
   117    58   124 1   
   118    58   125 1   
   119    59    60 2   
   120    59    61 1   
   121    61   126 1   
   122    61   140 1   
   123    62    63 1   
   124    62   127 1   
   125    62   128 1   
   126    62   140 1   
   127    63    64 1   
   128    63   129 1   
   129    64    65 2   
   130    64    66 1   
   131    66    67 1   
   132    66   130 1   
   133    67   131 1   
   134    68    69 1   
   135    69    70 1   
   136    69    71 1   
   137    69   132 1   
   138    70   133 1   
   139    70   134 1   
   140    70   135 1   
   141    71   136 1   
   142    71   137 1   
   143    71   138 1   
   144    72    73 2   
   145    72    74 2   
   146    75   139 1   
   147   140   143 1   
   148   140   144 1   
@<TRIPOS>SUBSTRUCTURE
     1 0Y3         1 TEMP              0 ****  ****    0 ROOT
