@<TRIPOS>MOLECULE
0Y3
  144   148     1     0     0
SMALL
abcg2


@<TRIPOS>ATOM
      1 C2           5.4480     1.7840    24.6340 ca         1 0Y3      -0.314000
      2 C3           5.1330     0.4330    24.5260 ca         1 0Y3      -0.013500
      3 C4           5.2990    -0.2010    23.3070 ca         1 0Y3      -0.122250
      4 C5           5.7720     0.4940    22.1870 cp         1 0Y3       0.035000
      5 C6           6.0860     1.8520    22.3260 ca         1 0Y3      -0.122250
      6 C7           5.9240     2.5000    23.5390 ca         1 0Y3      -0.013500
      7 C8           5.9390    -0.1930    20.8900 cp         1 0Y3      -0.055000
      8 C9           7.0170     0.1090    20.0500 ca         1 0Y3      -0.091250
      9 C11          6.2590    -1.5060    18.4330 ca         1 0Y3      -0.096000
     10 C12          5.1780    -1.8150    19.2550 ca         1 0Y3      -0.111000
     11 C13          5.0190    -1.1640    20.4730 ca         1 0Y3      -0.091250
     12 N16          3.5020     3.0230    26.1370 n3         1 0Y3      -0.548000
     13 C75          1.3330    -5.2700    27.5640 c          1 0Y3       0.558600
     14 N76          0.9440    -5.7030    28.7660 ns         1 0Y3      -0.375900
     15 O77         -0.1680    -5.1220    29.3590 oh         1 0Y3      -0.437100
     16 C54          2.5380    -6.0070    26.9860 c3         1 0Y3       0.174500
     17 N55          3.6570    -5.0960    26.6970 n3         1 0Y3      -0.548000
     18 S60          4.8080    -4.7410    27.8370 sy         1 0Y3       1.201600
     19 O62          5.8420    -4.0120    27.1540 o          1 0Y3      -0.532500
     20 C63          4.0410    -3.6640    29.0170 ca         1 0Y3      -0.314000
     21 C68          3.5340    -4.1800    30.2070 ca         1 0Y3      -0.013500
     22 C67          2.9250    -3.3250    31.1140 ca         1 0Y3      -0.122250
     23 C66          2.8160    -1.9530    30.8560 cp         1 0Y3       0.035000
     24 C69          2.1720    -1.0410    31.8240 cp         1 0Y3      -0.055000
     25 C74          2.2470    -1.2820    33.2020 ca         1 0Y3      -0.091250
     26 C73          1.6360    -0.4270    34.1090 ca         1 0Y3      -0.111000
     27 C72          0.9300     0.6840    33.6580 ca         1 0Y3      -0.096000
     28 C71          0.8450     0.9350    32.2930 ca         1 0Y3      -0.111000
     29 C70          1.4600     0.0820    31.3850 ca         1 0Y3      -0.091250
     30 C65          3.3420    -1.4600    29.6530 ca         1 0Y3      -0.122250
     31 C64          3.9460    -2.3030    28.7370 ca         1 0Y3      -0.013500
     32 O61          5.1120    -5.9800    28.5120 o          1 0Y3      -0.532500
     33 O56          3.7350    -4.4630    25.4760 os         1 0Y3      -0.186300
     34 C57          3.0660    -3.1510    25.3730 c3         1 0Y3       0.131800
     35 C59          4.1300    -2.1400    25.0040 c3         1 0Y3      -0.110850
     36 C58          1.9800    -3.2680    24.3230 c3         1 0Y3      -0.110850
     37 C51          2.2280    -6.8490    25.7300 c3         1 0Y3      -0.084400
     38 C50          0.7780    -7.3380    25.5630 c3         1 0Y3       0.106000
     39 N49          0.1110    -6.6270    24.4810 ns         1 0Y3      -0.508400
     40 C48         -1.2250    -6.6130    24.3080 c          1 0Y3       0.598600
     41 O53         -2.0030    -7.1470    25.1000 o          1 0Y3      -0.607600
     42 C47         -1.6990    -5.9010    23.0530 c3         1 0Y3      -0.151900
     43 C46         -3.0290    -5.1800    23.2620 c3         1 0Y3      -0.083400
     44 C45         -3.3180    -4.1870    22.1450 c3         1 0Y3       0.102500
     45 N44         -4.3830    -3.2740    22.5380 ns         1 0Y3      -0.500900
     46 O52         -3.9640    -1.7750    20.8990 o          1 0Y3      -0.609600
     47 C39         -5.6960    -1.2500    22.4560 ca         1 0Y3      -0.155100
     48 C38         -5.4750     0.1220    22.4680 ca         1 0Y3      -0.043000
     49 C40         -6.8970    -1.7610    22.9380 ca         1 0Y3      -0.054000
     50 C41         -7.8700    -0.8960    23.4290 ca         1 0Y3      -0.125000
     51 C42         -7.6320     0.4720    23.4620 ca         1 0Y3      -0.054000
     52 C37         -6.4260     0.9940    22.9900 ca         1 0Y3      -0.155100
     53 C34         -6.2080     2.4780    23.0900 c          1 0Y3       0.606200
     54 O35         -7.0870     3.2300    23.5250 o          1 0Y3      -0.609600
     55 N33         -5.0070     2.9290    22.6970 ns         1 0Y3      -0.500900
     56 C32         -4.5790     4.3100    22.8730 c3         1 0Y3       0.102500
     57 C31         -3.0480     4.4130    22.7980 c3         1 0Y3      -0.083400
     58 C30         -2.4190     4.7730    24.1470 c3         1 0Y3      -0.151900
     59 C29         -1.0680     5.4680    24.0570 c          1 0Y3       0.598600
     60 O36         -0.7800     6.2570    23.1540 o          1 0Y3      -0.607600
     61 N28         -0.2340     5.1860    25.0760 ns         1 0Y3      -0.508400
     62 C26          1.9620     4.9840    26.1620 c3         1 0Y3      -0.084400
     63 C20          3.0320     4.2000    25.3770 c3         1 0Y3       0.174500
     64 C21          2.6070     3.8340    23.9530 c          1 0Y3       0.558600
     65 O25          1.6810     3.0770    23.6510 o          1 0Y3      -0.598600
     66 N22          3.3030     4.4570    22.9960 ns         1 0Y3      -0.375900
     67 O23          3.0340     4.1390    21.6720 oh         1 0Y3      -0.437100
     68 O17          2.6560     1.9120    26.0630 os         1 0Y3      -0.186300
     69 C19          2.3010     1.2940    27.3490 c3         1 0Y3       0.131800
     70 C24          1.6600    -0.0100    26.9220 c3         1 0Y3      -0.110850
     71 C23          1.3790     2.1620    28.1770 c3         1 0Y3      -0.110850
     72 S1           5.1230     2.6280    26.1550 sy         1 0Y3       1.201600
     73 O14          5.8300     3.8800    26.1710 o          1 0Y3      -0.532500
     74 O15          5.3050     1.6900    27.2320 o          1 0Y3      -0.532500
     75 C10          7.1780    -0.5430    18.8370 ca         1 0Y3      -0.111000
     76 H1           4.7780    -0.1150    25.3860 ha         1 0Y3       0.133000
     77 H2           5.0700    -1.2530    23.2240 ha         1 0Y3       0.127500
     78 H3           6.4480     2.4100    21.4740 ha         1 0Y3       0.127500
     79 H4           6.1690     3.5460    23.6370 ha         1 0Y3       0.133000
     80 H5           7.7500     0.8440    20.3630 ha         1 0Y3       0.114750
     81 H6           6.3880    -2.0270    17.4920 ha         1 0Y3       0.116500
     82 H7           4.4500    -2.5510    18.9410 ha         1 0Y3       0.116250
     83 H8           4.1710    -1.4020    21.0990 ha         1 0Y3       0.114750
     84 H9           1.2840    -6.5100    29.2640 hn         1 0Y3       0.362500
     85 H10         -0.4050    -4.4270    28.7080 ho         1 0Y3       0.478500
     86 H11          2.9160    -6.6710    27.7620 h1         1 0Y3       0.080700
     87 H12          3.6110    -5.2360    30.4180 ha         1 0Y3       0.133000
     88 H13          2.5070    -3.7400    32.0200 ha         1 0Y3       0.127500
     89 H14          2.8190    -2.1260    33.5690 ha         1 0Y3       0.114750
     90 H15          1.7180    -0.6230    35.1710 ha         1 0Y3       0.116250
     91 H16          0.4490     1.3470    34.3660 ha         1 0Y3       0.116500
     92 H17          0.2900     1.7910    31.9270 ha         1 0Y3       0.116250
     93 H18          1.3630     0.2780    30.3240 ha         1 0Y3       0.114750
     94 H19          3.3020    -0.4010    29.4430 ha         1 0Y3       0.127500
     95 H20          4.3640    -1.8960    27.8260 ha         1 0Y3       0.133000
     96 H21          2.6250    -2.9290    26.3430 h1         1 0Y3       0.072200
     97 H22          4.8960    -2.0610    25.7730 hc         1 0Y3       0.051367
     98 H23          4.6090    -2.4270    24.0650 hc         1 0Y3       0.051367
     99 H24          3.6690    -1.1610    24.8650 hc         1 0Y3       0.051367
    100 H25          1.2470    -4.0170    24.6080 hc         1 0Y3       0.051367
    101 H26          1.4710    -2.3080    24.2200 hc         1 0Y3       0.051367
    102 H27          2.4110    -3.5300    23.3520 hc         1 0Y3       0.051367
    103 H28          2.9000    -7.7060    25.7410 hc         1 0Y3       0.070200
    104 H29          2.5070    -6.2470    24.8690 hc         1 0Y3       0.070200
    105 H30          0.1900    -7.1870    26.4680 h1         1 0Y3       0.058200
    106 H31          0.7740    -8.4120    25.3660 h1         1 0Y3       0.058200
    107 H32          0.6860    -6.1790    23.7870 hn         1 0Y3       0.313000
    108 H33         -1.7920    -6.6570    22.2670 hc         1 0Y3       0.058450
    109 H34         -0.9300    -5.2020    22.7200 hc         1 0Y3       0.058450
    110 H35         -3.0080    -4.6430    24.2140 hc         1 0Y3       0.062700
    111 H36         -3.8350    -5.9140    23.3260 hc         1 0Y3       0.062700
    112 H37         -3.6020    -4.7050    21.2240 h1         1 0Y3       0.055200
    113 H38         -2.4240    -3.6040    21.9180 h1         1 0Y3       0.055200
    114 H39         -4.8850    -3.4620    23.3930 hn         1 0Y3       0.317500
    115 H40         -4.5410     0.4740    22.0580 ha         1 0Y3       0.127000
    116 H41         -7.0880    -2.8270    22.9120 ha         1 0Y3       0.131000
    117 H42         -8.8130    -1.2850    23.7900 ha         1 0Y3       0.124000
    118 H43         -8.3710     1.1550    23.8580 ha         1 0Y3       0.131000
    119 H44         -4.2930     2.2640    22.4510 hn         1 0Y3       0.317500
    120 H45         -4.9460     4.6580    23.8400 h1         1 0Y3       0.055200
    121 H46         -5.0560     4.9440    22.1230 h1         1 0Y3       0.055200
    122 H47         -2.6340     3.4630    22.4580 hc         1 0Y3       0.062700
    123 H48         -2.7560     5.1550    22.0580 hc         1 0Y3       0.062700
    124 H49         -3.0720     5.4670    24.6870 hc         1 0Y3       0.058450
    125 H50         -2.3220     3.8860    24.7760 hc         1 0Y3       0.058450
    126 H51         -0.5420     4.5180    25.7650 hn         1 0Y3       0.313000
    127 H54          1.3670     4.2940    26.7500 hc         1 0Y3       0.070200
    128 H55          2.5000     5.6140    26.8680 hc         1 0Y3       0.070200
    129 H56          3.9090     4.8380    25.3050 h1         1 0Y3       0.080700
    130 H57          4.1590     4.9750    23.1100 hn         1 0Y3       0.362500
    131 H58          2.2790     3.5210    21.7650 ho         1 0Y3       0.478500
    132 H59          3.2250     1.1010    27.8910 h1         1 0Y3       0.072200
    133 H60          1.3620    -0.5810    27.8020 hc         1 0Y3       0.051367
    134 H61          0.7710     0.1820    26.3200 hc         1 0Y3       0.051367
    135 H62          2.3580    -0.6110    26.3410 hc         1 0Y3       0.051367
    136 H63          1.1120     1.6240    29.0890 hc         1 0Y3       0.051367
    137 H64          1.8650     3.0910    28.4740 hc         1 0Y3       0.051367
    138 H65          0.4630     2.3900    27.6290 hc         1 0Y3       0.051367
    139 H66          8.0200    -0.2960    18.2020 ha         1 0Y3       0.116250
    140 C27          1.0280     5.8660    25.3240 c3         1 0Y3       0.106000
    141 C43         -4.6140    -2.1210    21.8900 c          1 0Y3       0.606200
    142 O78          0.7460    -4.3280    27.0250 o          1 0Y3      -0.598600
    143 H52          1.4730     6.1360    24.3650 h1         1 0Y3       0.058200
    144 H53          0.8440     6.8020    25.8570 h1         1 0Y3       0.058200
@<TRIPOS>BOND
     1     1     2 ar  
     2     1     6 ar  
     3     1    72 1   
     4     2     3 ar  
     5     2    76 1   
     6     3     4 ar  
     7     3    77 1   
     8     4     5 ar  
     9     4     7 1   
    10     5     6 ar  
    11     5    78 1   
    12     6    79 1   
    13     7     8 ar  
    14     7    11 ar  
    15     8    75 ar  
    16     8    80 1   
    17     9    10 ar  
    18     9    75 ar  
    19     9    81 1   
    20    10    11 ar  
    21    10    82 1   
    22    11    83 1   
    23    12    63 1   
    24    12    68 1   
    25    12    72 1   
    26    13    14 1   
    27    13    16 1   
    28    13   142 2   
    29    14    15 1   
    30    14    84 1   
    31    15    85 1   
    32    16    17 1   
    33    16    37 1   
    34    16    86 1   
    35    17    18 1   
    36    17    33 1   
    37    18    19 2   
    38    18    20 1   
    39    18    32 2   
    40    20    21 ar  
    41    20    31 ar  
    42    21    22 ar  
    43    21    87 1   
    44    22    23 ar  
    45    22    88 1   
    46    23    24 1   
    47    23    30 ar  
    48    24    25 ar  
    49    24    29 ar  
    50    25    26 ar  
    51    25    89 1   
    52    26    27 ar  
    53    26    90 1   
    54    27    28 ar  
    55    27    91 1   
    56    28    29 ar  
    57    28    92 1   
    58    29    93 1   
    59    30    31 ar  
    60    30    94 1   
    61    31    95 1   
    62    33    34 1   
    63    34    35 1   
    64    34    36 1   
    65    34    96 1   
    66    35    97 1   
    67    35    98 1   
    68    35    99 1   
    69    36   100 1   
    70    36   101 1   
    71    36   102 1   
    72    37    38 1   
    73    37   103 1   
    74    37   104 1   
    75    38    39 1   
    76    38   105 1   
    77    38   106 1   
    78    39    40 1   
    79    39   107 1   
    80    40    41 2   
    81    40    42 1   
    82    42    43 1   
    83    42   108 1   
    84    42   109 1   
    85    43    44 1   
    86    43   110 1   
    87    43   111 1   
    88    44    45 1   
    89    44   112 1   
    90    44   113 1   
    91    45   114 1   
    92    45   141 1   
    93    46   141 2   
    94    47    48 ar  
    95    47    49 ar  
    96    47   141 1   
    97    48    52 ar  
    98    48   115 1   
    99    49    50 ar  
   100    49   116 1   
   101    50    51 ar  
   102    50   117 1   
   103    51    52 ar  
   104    51   118 1   
   105    52    53 1   
   106    53    54 2   
   107    53    55 1   
   108    55    56 1   
   109    55   119 1   
   110    56    57 1   
   111    56   120 1   
   112    56   121 1   
   113    57    58 1   
   114    57   122 1   
   115    57   123 1   
   116    58    59 1   
   117    58   124 1   
   118    58   125 1   
   119    59    60 2   
   120    59    61 1   
   121    61   126 1   
   122    61   140 1   
   123    62    63 1   
   124    62   127 1   
   125    62   128 1   
   126    62   140 1   
   127    63    64 1   
   128    63   129 1   
   129    64    65 2   
   130    64    66 1   
   131    66    67 1   
   132    66   130 1   
   133    67   131 1   
   134    68    69 1   
   135    69    70 1   
   136    69    71 1   
   137    69   132 1   
   138    70   133 1   
   139    70   134 1   
   140    70   135 1   
   141    71   136 1   
   142    71   137 1   
   143    71   138 1   
   144    72    73 2   
   145    72    74 2   
   146    75   139 1   
   147   140   143 1   
   148   140   144 1   
@<TRIPOS>SUBSTRUCTURE
     1 0Y3         1 TEMP              0 ****  ****    0 ROOT
