@<TRIPOS>MOLECULE
0Y4
   49    52     1     0     0
SMALL
No Charge or Current Charge


@<TRIPOS>ATOM
      1 C1           6.5360     1.7070     0.8550 c3         1 0Y4      -0.041800
      2 C2           5.1450     1.0800     0.7740 ca         1 0Y4      -0.141300
      3 C3           4.0320     1.8230     1.2140 ca         1 0Y4      -0.065000
      4 C7           4.9610    -0.2290     0.2690 ca         1 0Y4       0.001000
      5 C9           6.2700    -2.1820    -0.7900 c          1 0Y4       0.607100
      6 C11          7.7260    -2.5670    -1.0320 c3         1 0Y4      -0.183100
      7 C13          0.0580    -0.1450     0.2430 cc         1 0Y4       0.697900
      8 C14         -0.9900    -1.1130     0.3260 cc         1 0Y4      -0.380000
      9 C15         -2.2900    -0.7950     0.0070 cd         1 0Y4       0.426000
     10 N18         -0.0250     1.1020    -0.1610 nd         1 0Y4      -0.759000
     11 C19         -1.7780     2.5010    -1.0230 cc         1 0Y4      -0.256300
     12 C20         -3.1520     2.2930    -1.2890 cc         1 0Y4       0.439500
     13 C22         -1.0710     3.6880    -1.3160 cg         1 0Y4       0.351700
     14 N23         -0.5170     4.6830    -1.5680 n1         1 0Y4      -0.492000
     15 N29         -5.2850    -2.8000     0.2720 nc         1 0Y4      -0.649000
     16 C30         -7.7940    -0.4960     1.5870 c3         1 0Y4       0.057900
     17 C4           2.7430     1.2740     1.1520 ca         1 0Y4      -0.135000
     18 C5           2.5470    -0.0190     0.6450 ca         1 0Y4       0.318000
     19 C6           3.6550    -0.7680     0.2200 ca         1 0Y4      -0.176000
     20 N8           6.1110    -0.9560    -0.1570 ns         1 0Y4      -0.160000
     21 O10          5.3510    -2.9120    -1.1430 o          1 0Y4      -0.583100
     22 N12          1.2810    -0.6040     0.5960 nu         1 0Y4      -0.922900
     23 N16         -2.4540     0.5300    -0.4340 na         1 0Y4       0.055900
     24 C17         -1.3400     1.3390    -0.4900 cd         1 0Y4       0.498500
     25 N21         -3.6160     1.0870    -0.9670 nd         1 0Y4      -0.559100
     26 N24         -3.2890    -1.7340     0.0880 nu         1 0Y4      -0.892900
     27 C25         -4.5990    -1.6520     0.4050 cc         1 0Y4       0.454900
     28 C26         -5.3410    -0.6280     0.9100 cd         1 0Y4      -0.228000
     29 N27         -6.6000    -1.1790     1.0700 na         1 0Y4      -0.152500
     30 C28         -6.5180    -2.5090     0.6700 cd         1 0Y4       0.402400
     31 H1           7.1930     1.1260     1.5130 hc         1 0Y4       0.040033
     32 H2           7.0050     1.7580    -0.1350 hc         1 0Y4       0.040033
     33 H3           6.5000     2.7290     1.2510 hc         1 0Y4       0.040033
     34 H4           4.1640     2.8280     1.6100 ha         1 0Y4       0.118000
     35 H5           7.8300    -3.5350    -1.5360 hc         1 0Y4       0.063033
     36 H6           8.2190    -1.7640    -1.5920 hc         1 0Y4       0.063033
     37 H7           8.2640    -2.5480    -0.0770 hc         1 0Y4       0.063033
     38 H8          -0.7520    -2.1100     0.6720 ha         1 0Y4       0.136000
     39 H9          -3.8370     3.0020    -1.7340 h4         1 0Y4       0.053800
     40 H10         -7.7310     0.5770     1.3690 h1         1 0Y4       0.057700
     41 H11         -8.6930    -0.9070     1.1110 h1         1 0Y4       0.057700
     42 H12         -7.8590    -0.6420     2.6730 h1         1 0Y4       0.057700
     43 H13          1.8970     1.8520     1.5090 ha         1 0Y4       0.161000
     44 H14          3.4800    -1.7710    -0.1480 ha         1 0Y4       0.132000
     45 H15          6.9830    -0.4850     0.0430 hn         1 0Y4       0.152000
     46 H16          1.2910    -1.6180     0.6140 hn         1 0Y4       0.502000
     47 H17         -2.9730    -2.6960     0.0240 hn         1 0Y4       0.506000
     48 H18         -5.0810     0.3900     1.1640 h4         1 0Y4       0.165000
     49 H19         -7.3690    -3.1800     0.7050 h5         1 0Y4       0.060100
@<TRIPOS>BOND
     1     1     2 1   
     2     1    31 1   
     3     1    32 1   
     4     1    33 1   
     5     2     3 ar  
     6     2     4 ar  
     7     3    17 ar  
     8     3    34 1   
     9     4    19 ar  
    10     4    20 1   
    11     5     6 1   
    12     5    20 1   
    13     5    21 2   
    14     6    35 1   
    15     6    36 1   
    16     6    37 1   
    17     7     8 1   
    18     7    10 2   
    19     7    22 1   
    20     8     9 2   
    21     8    38 1   
    22     9    23 1   
    23     9    26 1   
    24    10    24 1   
    25    11    12 1   
    26    11    13 1   
    27    11    24 2   
    28    12    25 2   
    29    12    39 1   
    30    13    14 3   
    31    15    27 1   
    32    15    30 2   
    33    16    29 1   
    34    16    40 1   
    35    16    41 1   
    36    16    42 1   
    37    17    18 ar  
    38    17    43 1   
    39    18    19 ar  
    40    18    22 1   
    41    19    44 1   
    42    20    45 1   
    43    22    46 1   
    44    23    24 1   
    45    23    25 1   
    46    26    27 1   
    47    26    47 1   
    48    27    28 2   
    49    28    29 1   
    50    28    48 1   
    51    29    30 1   
    52    30    49 1   
@<TRIPOS>SUBSTRUCTURE
     1 0Y4         1 TEMP              0 ****  ****    0 ROOT
