@<TRIPOS>MOLECULE
0Y4
   49    52     1     0     0
SMALL
abcg2


@<TRIPOS>ATOM
      1 C1           6.3620     1.8090     0.6360 c3         1 0Y4      -0.041800
      2 C2           5.0260     1.1530     0.4430 ca         1 0Y4      -0.141300
      3 C3           3.8660     1.9080     0.3600 ca         1 0Y4      -0.065000
      4 C7           4.8980    -0.2400     0.3310 ca         1 0Y4       0.001000
      5 C9           6.3570    -2.1670    -0.2240 c          1 0Y4       0.607100
      6 C11          7.7540    -2.6750     0.0280 c3         1 0Y4      -0.183100
      7 C13          0.0300    -0.3030    -0.2720 cc         1 0Y4       0.697900
      8 C14         -0.9870    -1.2880    -0.3370 cc         1 0Y4      -0.380000
      9 C15         -2.2960    -0.9120    -0.5050 cd         1 0Y4       0.426000
     10 N18         -0.2280     0.9920    -0.3450 nd         1 0Y4      -0.759000
     11 C19         -2.1000     2.5800    -0.6890 cc         1 0Y4      -0.256300
     12 C20         -3.4660     2.2960    -0.8960 cc         1 0Y4       0.439500
     13 C22         -1.4480     3.8200    -0.6770 cg         1 0Y4       0.351700
     14 N23         -0.9070     4.8410    -0.6670 n1         1 0Y4      -0.492000
     15 N29         -5.7220    -1.8230    -0.7730 nc         1 0Y4      -0.649000
     16 C30         -7.0680    -0.6980     2.3680 c3         1 0Y4       0.057900
     17 C4           2.6110     1.3490     0.1650 ca         1 0Y4      -0.135000
     18 C5           2.4980    -0.0350     0.0600 ca         1 0Y4       0.318000
     19 C6           3.6510    -0.8200     0.1490 ca         1 0Y4      -0.176000
     20 N8           6.0600    -1.0190     0.4440 ns         1 0Y4      -0.160000
     21 O10          5.5850    -2.7220    -0.9840 o          1 0Y4      -0.583100
     22 N12          1.3030    -0.7360    -0.1100 nu         1 0Y4      -0.922900
     23 N16         -2.5290     0.4320    -0.6090 na         1 0Y4       0.055900
     24 C17         -1.4950     1.3310    -0.5170 cd         1 0Y4       0.498500
     25 N21         -3.7230     1.0140    -0.8560 nd         1 0Y4      -0.559100
     26 N24         -3.3210    -1.7850    -0.6190 nu         1 0Y4      -0.892900
     27 C25         -4.5950    -1.5810    -0.0610 cc         1 0Y4       0.454900
     28 C26         -4.8960    -1.1550     1.2030 cd         1 0Y4      -0.228000
     29 N27         -6.2580    -1.1210     1.2460 na         1 0Y4      -0.152500
     30 C28         -6.7050    -1.5380     0.0450 cd         1 0Y4       0.402400
     31 H1           6.8420     1.5100     1.5720 hc         1 0Y4       0.040033
     32 H2           7.0550     1.5690    -0.1730 hc         1 0Y4       0.040033
     33 H3           6.2550     2.8920     0.6650 hc         1 0Y4       0.040033
     34 H4           3.9410     2.9860     0.4410 ha         1 0Y4       0.118000
     35 H5           7.7810    -3.7560    -0.0840 hc         1 0Y4       0.063033
     36 H6           8.4300    -2.2460    -0.7150 hc         1 0Y4       0.063033
     37 H7           8.1330    -2.4110     1.0140 hc         1 0Y4       0.063033
     38 H8          -0.7530    -2.3370    -0.2210 ha         1 0Y4       0.136000
     39 H9          -4.2590     3.0040    -1.0820 h4         1 0Y4       0.053800
     40 H10         -6.9490     0.3680     2.5470 h1         1 0Y4       0.057700
     41 H11         -8.1120    -0.9050     2.1500 h1         1 0Y4       0.057700
     42 H12         -6.7830    -1.2440     3.2650 h1         1 0Y4       0.057700
     43 H13          1.7460     1.9870     0.0980 ha         1 0Y4       0.161000
     44 H14          3.5600    -1.8950     0.0920 ha         1 0Y4       0.132000
     45 H15          6.8020    -0.6240     1.0000 hn         1 0Y4       0.152000
     46 H16          1.4060    -1.7390    -0.1000 hn         1 0Y4       0.502000
     47 H17         -3.0280    -2.7480    -0.6990 hn         1 0Y4       0.506000
     48 H18         -4.2770    -0.8730     2.0380 h4         1 0Y4       0.165000
     49 H19         -7.7580    -1.6200    -0.1780 h5         1 0Y4       0.060100
@<TRIPOS>BOND
     1     1     2 1   
     2     1    31 1   
     3     1    32 1   
     4     1    33 1   
     5     2     3 ar  
     6     2     4 ar  
     7     3    17 ar  
     8     3    34 1   
     9     4    19 ar  
    10     4    20 1   
    11     5     6 1   
    12     5    20 1   
    13     5    21 2   
    14     6    35 1   
    15     6    36 1   
    16     6    37 1   
    17     7     8 1   
    18     7    10 2   
    19     7    22 1   
    20     8     9 2   
    21     8    38 1   
    22     9    23 1   
    23     9    26 1   
    24    10    24 1   
    25    11    12 1   
    26    11    13 1   
    27    11    24 2   
    28    12    25 2   
    29    12    39 1   
    30    13    14 3   
    31    15    27 1   
    32    15    30 2   
    33    16    29 1   
    34    16    40 1   
    35    16    41 1   
    36    16    42 1   
    37    17    18 ar  
    38    17    43 1   
    39    18    19 ar  
    40    18    22 1   
    41    19    44 1   
    42    20    45 1   
    43    22    46 1   
    44    23    24 1   
    45    23    25 1   
    46    26    27 1   
    47    26    47 1   
    48    27    28 2   
    49    28    29 1   
    50    28    48 1   
    51    29    30 1   
    52    30    49 1   
@<TRIPOS>SUBSTRUCTURE
     1 0Y4         1 TEMP              0 ****  ****    0 ROOT
