@<TRIPOS>MOLECULE
0Y5
   59    62     1     0     0
SMALL
abcg2


@<TRIPOS>ATOM
      1 C26         -5.2950     0.5420    -3.2370 ca         1 0Y5      -0.089000
      2 C19         -1.5590    -2.1250    -0.1470 ca         1 0Y5      -0.089000
      3 C27         -6.5450     1.0690    -2.9470 ca         1 0Y5      -0.114000
      4 C18         -0.3090    -1.5290    -0.1280 ca         1 0Y5      -0.119000
      5 C25         -4.3170     0.4360    -2.2610 ca         1 0Y5      -0.141000
      6 C22         -1.3560     0.6140    -0.0430 ca         1 0Y5      -0.140000
      7 C29         -5.8410     1.3880    -0.6590 ca         1 0Y5      -0.077000
      8 C20         -2.7390    -1.3840    -0.0850 ca         1 0Y5      -0.137600
      9 C17         -0.1930    -0.1430    -0.0750 ca         1 0Y5      -0.118300
     10 C28         -6.8060     1.4950    -1.6510 ca         1 0Y5      -0.172300
     11 C24         -4.5960     0.8580    -0.9650 ca         1 0Y5       0.189100
     12 C21         -2.6020     0.0030    -0.0370 ca         1 0Y5       0.106100
     13 C3           6.5010    -1.5470     0.0460 cc         1 0Y5       0.002600
     14 C2           7.7770    -1.5280    -0.3790 cd         1 0Y5      -0.281400
     15 C8           8.5370    -0.3150    -0.1730 c          1 0Y5       0.589200
     16 C5           6.5290     0.6800     0.8870 c          1 0Y5       0.614000
     17 C12          2.8150    -0.9420     2.9100 c6         1 0Y5      -0.075400
     18 C11          4.2750    -0.6260     2.5990 c6         1 0Y5      -0.090400
     19 C13          1.8800    -0.0490     2.1110 c6         1 0Y5       0.161800
     20 C15          3.4940     0.2390     0.3590 c6         1 0Y5       0.156800
     21 C10          4.4680    -0.6830     1.0890 c6         1 0Y5       0.118700
     22 C1           8.4330    -2.6950    -1.0410 c3         1 0Y5      -0.015900
     23 C30         -8.1290     2.0890    -1.2810 c3         1 0Y5       0.353300
     24 N7           7.8310     0.6950     0.4530 ns         1 0Y5      -0.469500
     25 N4           5.8640    -0.5010     0.6610 n          1 0Y5      -0.302000
     26 N14          2.1400    -0.1710     0.6860 n3         1 0Y5      -0.724600
     27 O23         -3.6850     0.8430     0.0350 os         1 0Y5      -0.239200
     28 F31         -8.6860     1.4580    -0.2370 f          1 0Y5      -0.122667
     29 F32         -8.0100     3.3770    -0.9240 f          1 0Y5      -0.122667
     30 F33         -9.0160     2.0440    -2.2800 f          1 0Y5      -0.122667
     31 H1          -5.0750     0.2130    -4.2430 ha         1 0Y5       0.105000
     32 H2          -1.6310    -3.2040    -0.1960 ha         1 0Y5       0.131000
     33 H3          -7.2880     1.1430    -3.7280 ha         1 0Y5       0.114000
     34 H4           0.5850    -2.1400    -0.1450 ha         1 0Y5       0.105000
     35 H5          -3.3470     0.0320    -2.5200 ha         1 0Y5       0.130000
     36 H6          -1.2980     1.6960    -0.0110 ha         1 0Y5       0.103000
     37 H7          -6.0400     1.7080     0.3570 ha         1 0Y5       0.139000
     38 H8           5.8920    -2.4320    -0.0830 h4         1 0Y5       0.208000
     39 H9           2.6030    -1.9880     2.6700 hc         1 0Y5       0.050700
     40 H10          2.6240    -0.8120     3.9770 hc         1 0Y5       0.050700
     41 H11          4.5220     0.3660     2.9800 hc         1 0Y5       0.054200
     42 H12          4.9380    -1.3430     3.0880 hc         1 0Y5       0.054200
     43 H13          0.8460    -0.3360     2.3060 h1         1 0Y5       0.047700
     44 H14          1.9910     0.9980     2.4460 h1         1 0Y5       0.047700
     45 H15          3.6780     1.2900     0.6230 h1         1 0Y5       0.047200
     46 H16          3.6430     0.1360    -0.7180 h1         1 0Y5       0.047200
     47 H17          4.2150    -1.6960     0.7680 h1         1 0Y5       0.067700
     48 H18          8.7610    -2.4480    -2.0510 hc         1 0Y5       0.043700
     49 H19          9.3140    -3.0220    -0.4860 hc         1 0Y5       0.043700
     50 H20          7.7480    -3.5390    -1.1090 hc         1 0Y5       0.043700
     51 H21          1.5070     0.5460    -1.1460 h1         1 0Y5       0.030700
     52 H22          1.0430     1.5840     0.1900 h1         1 0Y5       0.030700
     53 H23          8.3260     1.5620     0.6190 hn         1 0Y5       0.338500
     54 C34         -4.0760    -2.1150    -0.0230 c          1 0Y5       0.711600
     55 O9           9.6990    -0.1490    -0.5020 o          1 0Y5      -0.542000
     56 O35         -4.1210    -3.2120    -0.6100 o          1 0Y5      -0.702000
     57 O36         -4.9840    -1.5710     0.6270 o          1 0Y5      -0.702000
     58 C16          1.1550     0.5290    -0.1100 c3         1 0Y5       0.228100
     59 O6           6.0300     1.6500     1.4240 o          1 0Y5      -0.557000
@<TRIPOS>BOND
     1     1     3 ar  
     2     1     5 ar  
     3     1    31 1   
     4     2     4 ar  
     5     2     8 ar  
     6     2    32 1   
     7     3    10 ar  
     8     3    33 1   
     9     4     9 ar  
    10     4    34 1   
    11     5    11 ar  
    12     5    35 1   
    13     6     9 ar  
    14     6    12 ar  
    15     6    36 1   
    16     7    10 ar  
    17     7    11 ar  
    18     7    37 1   
    19     8    12 ar  
    20     8    54 1   
    21     9    58 1   
    22    10    23 1   
    23    11    27 1   
    24    12    27 1   
    25    13    14 2   
    26    13    25 1   
    27    13    38 1   
    28    14    15 1   
    29    14    22 1   
    30    15    24 1   
    31    15    55 2   
    32    16    24 1   
    33    16    25 1   
    34    16    59 2   
    35    17    18 1   
    36    17    19 1   
    37    17    39 1   
    38    17    40 1   
    39    18    21 1   
    40    18    41 1   
    41    18    42 1   
    42    19    26 1   
    43    19    43 1   
    44    19    44 1   
    45    20    21 1   
    46    20    26 1   
    47    20    45 1   
    48    20    46 1   
    49    21    25 1   
    50    21    47 1   
    51    22    48 1   
    52    22    49 1   
    53    22    50 1   
    54    23    28 1   
    55    23    29 1   
    56    23    30 1   
    57    24    53 1   
    58    26    58 1   
    59    51    58 1   
    60    52    58 1   
    61    54    56 1   
    62    54    57 1   
@<TRIPOS>SUBSTRUCTURE
     1 0Y5         1 TEMP              0 ****  ****    0 ROOT
