@<TRIPOS>MOLECULE
0Y5
   59    62     1     0     0
SMALL
No Charge or Current Charge


@<TRIPOS>ATOM
      1 C26         -5.5070     0.9610    -3.0120 ca         1 0Y5      -0.089000
      2 C19         -1.8160    -2.5980    -0.6310 ca         1 0Y5      -0.089000
      3 C27         -6.6640     1.5940    -2.5290 ca         1 0Y5      -0.114000
      4 C18         -0.5160    -2.0950    -0.8110 ca         1 0Y5      -0.119000
      5 C25         -4.4790     0.5960    -2.1270 ca         1 0Y5      -0.141000
      6 C22         -1.3120     0.1430    -0.3160 ca         1 0Y5      -0.140000
      7 C29         -5.7670     1.5060    -0.2710 ca         1 0Y5      -0.077000
      8 C20         -2.8790    -1.7350    -0.2870 ca         1 0Y5      -0.137600
      9 C17         -0.2540    -0.7220    -0.6500 ca         1 0Y5      -0.118300
     10 C28         -6.8110     1.8700    -1.1510 ca         1 0Y5      -0.172300
     11 C24         -4.6110     0.8660    -0.7490 ca         1 0Y5       0.189100
     12 C21         -2.6150    -0.3540    -0.1420 ca         1 0Y5       0.106100
     13 C3           6.8180    -1.5650     0.5320 cc         1 0Y5       0.002600
     14 C2           8.1500    -1.3680     0.2390 cd         1 0Y5      -0.281400
     15 C8           8.6790     0.0060     0.0750 c          1 0Y5       0.589200
     16 C5           6.4260     0.8440     0.5310 c          1 0Y5       0.614000
     17 C12          2.6240    -0.6580     2.6900 c6         1 0Y5      -0.075400
     18 C11          4.1030    -0.2910     2.4220 c6         1 0Y5      -0.090400
     19 C13          1.6920    -0.1080     1.5790 c6         1 0Y5       0.161800
     20 C15          3.5080    -0.2090    -0.0870 c6         1 0Y5       0.156800
     21 C10          4.5050    -0.7310     0.9920 c6         1 0Y5       0.118700
     22 C1           9.1420    -2.4980     0.0680 c3         1 0Y5      -0.015900
     23 C30         -8.0660     2.5750    -0.6210 c3         1 0Y5       0.353300
     24 N7           7.7460     0.9760     0.2410 ns         1 0Y5      -0.469500
     25 N4           5.9450    -0.4800     0.6780 n          1 0Y5      -0.302000
     26 N14          2.1000    -0.5940     0.2270 n3         1 0Y5      -0.724600
     27 O23         -3.6190     0.5390     0.1520 os         1 0Y5      -0.239200
     28 F31         -8.3700     2.2000     0.6430 f          1 0Y5      -0.122667
     29 F32         -7.9050     3.9170    -0.6070 f          1 0Y5      -0.122667
     30 F33         -9.1600     2.3150    -1.3730 f          1 0Y5      -0.122667
     31 H1          -5.4050     0.7560    -4.0750 ha         1 0Y5       0.105000
     32 H2          -1.9990    -3.6640    -0.7510 ha         1 0Y5       0.131000
     33 H3          -7.4450     1.8750    -3.2330 ha         1 0Y5       0.114000
     34 H4           0.2940    -2.7740    -1.0680 ha         1 0Y5       0.105000
     35 H5          -3.5870     0.1140    -2.5170 ha         1 0Y5       0.130000
     36 H6          -1.1280     1.2080    -0.1960 ha         1 0Y5       0.103000
     37 H7          -5.8440     1.7170     0.7930 ha         1 0Y5       0.139000
     38 H8           6.3450    -2.5340     0.6710 h4         1 0Y5       0.208000
     39 H9           2.5160    -1.7500     2.7460 hc         1 0Y5       0.050700
     40 H10          2.3110    -0.2630     3.6660 hc         1 0Y5       0.050700
     41 H11          4.2370     0.7920     2.5430 hc         1 0Y5       0.054200
     42 H12          4.7520    -0.7760     3.1630 hc         1 0Y5       0.054200
     43 H13          0.6640    -0.4210     1.8110 h1         1 0Y5       0.047700
     44 H14          1.7070     0.9920     1.6100 h1         1 0Y5       0.047700
     45 H15          3.5830     0.8840    -0.1650 h1         1 0Y5       0.047200
     46 H16          3.8050    -0.6220    -1.0620 h1         1 0Y5       0.047200
     47 H17          4.3650    -1.8210     0.9800 h1         1 0Y5       0.067700
     48 H18          9.5860    -2.4860    -0.9350 hc         1 0Y5       0.043700
     49 H19          9.9570    -2.4220     0.7980 hc         1 0Y5       0.043700
     50 H20          8.6650    -3.4760     0.2060 hc         1 0Y5       0.043700
     51 H21          1.5280    -0.5410    -1.8130 h1         1 0Y5       0.030700
     52 H22          1.1240     0.9150    -0.9050 h1         1 0Y5       0.030700
     53 H23          8.0750     1.9220     0.1380 hn         1 0Y5       0.338500
     54 C34         -4.2610    -2.3020    -0.0820 c          1 0Y5       0.711600
     55 O9           9.8400     0.2790    -0.1850 o          1 0Y5      -0.542000
     56 O35         -4.6880    -3.0820    -0.9220 o          1 0Y5      -0.702000
     57 O36         -4.8540    -2.0390     0.9550 o          1 0Y5      -0.702000
     58 C16          1.1610    -0.1810    -0.8430 c3         1 0Y5       0.228100
     59 O6           5.7300     1.8380     0.6500 o          1 0Y5      -0.557000
@<TRIPOS>BOND
     1     1     3 ar  
     2     1     5 ar  
     3     1    31 1   
     4     2     4 ar  
     5     2     8 ar  
     6     2    32 1   
     7     3    10 ar  
     8     3    33 1   
     9     4     9 ar  
    10     4    34 1   
    11     5    11 ar  
    12     5    35 1   
    13     6     9 ar  
    14     6    12 ar  
    15     6    36 1   
    16     7    10 ar  
    17     7    11 ar  
    18     7    37 1   
    19     8    12 ar  
    20     8    54 1   
    21     9    58 1   
    22    10    23 1   
    23    11    27 1   
    24    12    27 1   
    25    13    14 2   
    26    13    25 1   
    27    13    38 1   
    28    14    15 1   
    29    14    22 1   
    30    15    24 1   
    31    15    55 2   
    32    16    24 1   
    33    16    25 1   
    34    16    59 2   
    35    17    18 1   
    36    17    19 1   
    37    17    39 1   
    38    17    40 1   
    39    18    21 1   
    40    18    41 1   
    41    18    42 1   
    42    19    26 1   
    43    19    43 1   
    44    19    44 1   
    45    20    21 1   
    46    20    26 1   
    47    20    45 1   
    48    20    46 1   
    49    21    25 1   
    50    21    47 1   
    51    22    48 1   
    52    22    49 1   
    53    22    50 1   
    54    23    28 1   
    55    23    29 1   
    56    23    30 1   
    57    24    53 1   
    58    26    58 1   
    59    51    58 1   
    60    52    58 1   
    61    54    56 1   
    62    54    57 1   
@<TRIPOS>SUBSTRUCTURE
     1 0Y5         1 TEMP              0 ****  ****    0 ROOT
