@<TRIPOS>MOLECULE
0Y7
   54    56     1     0     0
SMALL
No Charge or Current Charge


@<TRIPOS>ATOM
      1 Cl1          3.2150    -3.9890     2.2130 cl         1 0Y7      -0.230000
      2 C1           2.1740    -2.8580     1.3590 ca         1 0Y7       0.117000
      3 C2           1.2770    -2.0520     2.0780 ca         1 0Y7      -0.113000
      4 C3           0.4450    -1.1470     1.3970 ca         1 0Y7      -0.086000
      5 C4           2.2420    -2.7600    -0.0390 ca         1 0Y7      -0.113000
      6 C5           1.4100    -1.8560    -0.7220 ca         1 0Y7      -0.086000
      7 C6           0.5030    -1.0450    -0.0090 ca         1 0Y7      -0.088300
      8 C7          -0.3910    -0.0480    -0.7680 c6         1 0Y7       0.180000
      9 N1          -1.8480    -0.4070    -0.7150 n          1 0Y7      -0.399800
     10 C8          -2.2120    -1.7920    -1.1710 c3         1 0Y7       0.116700
     11 C9          -2.7500    -1.8550    -2.6330 c3         1 0Y7       0.132600
     12 O4          -1.8220    -1.2710    -3.5650 oh         1 0Y7      -0.672000
     13 C11         -2.8720     0.5680    -0.5580 c          1 0Y7       0.575000
     14 O1          -4.0530     0.2950    -0.7260 o          1 0Y7      -0.547000
     15 C12         -2.4890     2.0210    -0.2010 c6         1 0Y7      -0.127700
     16 C13         -2.5270     2.2140     1.3620 c3         1 0Y7      -0.202400
     17 C14         -3.9650     2.3250     1.9060 c          1 0Y7       0.720000
     18 O2          -4.5050     1.3140     2.3270 o          1 0Y7      -0.729500
     19 O3          -4.5090     3.4180     1.8690 o          1 0Y7      -0.729500
     20 C15         -1.1170     2.4060    -0.8020 c6         1 0Y7      -0.067400
     21 C16         -0.0310     1.4090    -0.3540 c6         1 0Y7      -0.029400
     22 C17          1.3690     1.7930    -0.8600 ca         1 0Y7      -0.053300
     23 C18          1.6180     1.9930    -2.2350 ca         1 0Y7      -0.105000
     24 C19          2.9080     2.3220    -2.6860 ca         1 0Y7      -0.111000
     25 C20          3.9630     2.4480    -1.7670 ca         1 0Y7      -0.115000
     26 C21          3.7250     2.2430    -0.3990 ca         1 0Y7       0.121000
     27 Cl2          5.0470     2.3900     0.7520 cl         1 0Y7      -0.222000
     28 C22          2.4370     1.9160     0.0540 ca         1 0Y7      -0.093000
     29 C10         -3.0880    -2.6020    -0.1730 c3         1 0Y7      -0.065400
     30 C23         -2.5410    -2.6650     1.2660 c3         1 0Y7      -0.091100
     31 H1           1.2260    -2.1300     3.1610 ha         1 0Y7       0.124000
     32 H2          -0.2510    -0.5330     1.9640 ha         1 0Y7       0.134500
     33 H3           2.9390    -3.3840    -0.5930 ha         1 0Y7       0.124000
     34 H4           1.4730    -1.7860    -1.8060 ha         1 0Y7       0.134500
     35 H5          -0.1220    -0.1260    -1.8310 h1         1 0Y7       0.055700
     36 H6          -1.2770    -2.3630    -1.2150 h1         1 0Y7       0.046700
     37 H7          -2.9250    -2.9070    -2.8960 h1         1 0Y7       0.030700
     38 H8          -3.7190    -1.3420    -2.6910 h1         1 0Y7       0.030700
     39 H9          -2.2300    -1.3360    -4.4560 ho         1 0Y7       0.434000
     40 H10         -3.2710     2.6770    -0.6070 hc         1 0Y7       0.102700
     41 H11         -2.0240     1.3530     1.8190 hc         1 0Y7       0.020700
     42 H12         -2.0140     3.1640     1.5570 hc         1 0Y7       0.020700
     43 H14         -1.1980     2.4110    -1.8970 hc         1 0Y7       0.040700
     44 H15         -0.8420     3.4270    -0.5070 hc         1 0Y7       0.040700
     45 H16          0.0010     1.4540     0.7410 hc         1 0Y7       0.077700
     46 H17          0.8140     1.8880    -2.9600 ha         1 0Y7       0.123000
     47 H18          3.0900     2.4750    -3.7470 ha         1 0Y7       0.109000
     48 H19          4.9620     2.7000    -2.1140 ha         1 0Y7       0.119000
     49 H20          2.2740     1.7530     1.1160 ha         1 0Y7       0.135000
     50 H21         -4.1050    -2.1950    -0.1480 hc         1 0Y7       0.038700
     51 H22         -3.1840    -3.6280    -0.5480 hc         1 0Y7       0.038700
     52 H23         -1.5440    -3.1220     1.2800 hc         1 0Y7       0.044033
     53 H24         -2.4790    -1.6630     1.7070 hc         1 0Y7       0.044033
     54 H25         -3.2010    -3.2720     1.8970 hc         1 0Y7       0.044033
@<TRIPOS>BOND
     1     1     2 1   
     2     2     3 ar  
     3     2     5 ar  
     4     3     4 ar  
     5     3    31 1   
     6     4     7 ar  
     7     4    32 1   
     8     5     6 ar  
     9     5    33 1   
    10     6     7 ar  
    11     6    34 1   
    12     7     8 1   
    13     8     9 1   
    14     8    21 1   
    15     8    35 1   
    16     9    10 1   
    17     9    13 1   
    18    10    11 1   
    19    10    29 1   
    20    10    36 1   
    21    11    12 1   
    22    11    37 1   
    23    11    38 1   
    24    12    39 1   
    25    13    14 2   
    26    13    15 1   
    27    15    16 1   
    28    15    20 1   
    29    15    40 1   
    30    16    17 1   
    31    16    41 1   
    32    16    42 1   
    33    17    18 1   
    34    17    19 1   
    35    20    21 1   
    36    20    43 1   
    37    20    44 1   
    38    21    22 1   
    39    21    45 1   
    40    22    23 ar  
    41    22    28 ar  
    42    23    24 ar  
    43    23    46 1   
    44    24    25 ar  
    45    24    47 1   
    46    25    26 ar  
    47    25    48 1   
    48    26    27 1   
    49    26    28 ar  
    50    28    49 1   
    51    29    30 1   
    52    29    50 1   
    53    29    51 1   
    54    30    52 1   
    55    30    53 1   
    56    30    54 1   
@<TRIPOS>SUBSTRUCTURE
     1 0Y7         1 TEMP              0 ****  ****    0 ROOT
