@<TRIPOS>MOLECULE
0Y7
   54    56     1     0     0
SMALL
abcg2


@<TRIPOS>ATOM
      1 CL1          3.2420    -3.7320     2.3130 cl         1 0Y7      -0.230000
      2 C1           2.1860    -2.6930     1.4120 ca         1 0Y7       0.117000
      3 C2           1.1600    -2.0300     2.0710 ca         1 0Y7      -0.113000
      4 C3           0.3220    -1.1980     1.3470 ca         1 0Y7      -0.086000
      5 C4           2.3790    -2.5370     0.0510 ca         1 0Y7      -0.113000
      6 C5           1.5250    -1.7020    -0.6570 ca         1 0Y7      -0.086000
      7 C6           0.4900    -1.0270    -0.0240 ca         1 0Y7      -0.088300
      8 C7          -0.3770    -0.0600    -0.8000 c6         1 0Y7       0.180000
      9 N1          -1.8080    -0.3810    -0.6860 n          1 0Y7      -0.399800
     10 C8          -2.1670    -1.7290    -1.1550 c3         1 0Y7       0.116700
     11 C9          -2.6410    -1.7460    -2.6040 c3         1 0Y7       0.132600
     12 O4          -1.6470    -1.2020    -3.4430 oh         1 0Y7      -0.672000
     13 C11         -2.7900     0.5420    -0.5310 c          1 0Y7       0.575000
     14 O1          -3.9720     0.2550    -0.6700 o          1 0Y7      -0.547000
     15 C12         -2.4010     1.9450    -0.1220 c6         1 0Y7      -0.127700
     16 C13         -2.3980     2.0380     1.4110 c3         1 0Y7      -0.202400
     17 C14         -3.8040     1.8910     2.0180 c          1 0Y7       0.720000
     18 O2          -3.9790     0.9650     2.8340 o          1 0Y7      -0.729500
     19 O3          -4.6540     2.7290     1.6530 o          1 0Y7      -0.729500
     20 C15         -1.0860     2.3590    -0.7630 c6         1 0Y7      -0.067400
     21 C16         -0.0040     1.3700    -0.3680 c6         1 0Y7      -0.029400
     22 C17          1.3590     1.7180    -0.9150 ca         1 0Y7      -0.053300
     23 C18          1.5680     1.8940    -2.2810 ca         1 0Y7      -0.105000
     24 C19          2.8290     2.2010    -2.7680 ca         1 0Y7      -0.111000
     25 C20          3.9080     2.3370    -1.9050 ca         1 0Y7      -0.115000
     26 C21          3.6930     2.1570    -0.5500 ca         1 0Y7       0.121000
     27 CL2          5.0260     2.3130     0.5520 cl         1 0Y7      -0.222000
     28 C22          2.4380     1.8500    -0.0480 ca         1 0Y7      -0.093000
     29 C10         -3.1660    -2.4960    -0.2790 c3         1 0Y7      -0.065400
     30 C23         -2.9350    -2.3940     1.2200 c3         1 0Y7      -0.091100
     31 H1           1.0150    -2.1580     3.1350 ha         1 0Y7       0.124000
     32 H2          -0.4780    -0.6840     1.8650 ha         1 0Y7       0.134500
     33 H3           3.1810    -3.0550    -0.4570 ha         1 0Y7       0.124000
     34 H4           1.6750    -1.5780    -1.7230 ha         1 0Y7       0.134500
     35 H5          -0.1160    -0.1610    -1.8580 h1         1 0Y7       0.055700
     36 H6          -1.2360    -2.3000    -1.1200 h1         1 0Y7       0.046700
     37 H7          -2.8530    -2.7920    -2.8630 h1         1 0Y7       0.030700
     38 H8          -3.5840    -1.1980    -2.6920 h1         1 0Y7       0.030700
     39 H9          -2.0290    -1.0730    -4.3150 ho         1 0Y7       0.434000
     40 H10         -3.1960     2.5990    -0.4860 hc         1 0Y7       0.102700
     41 H11         -1.7320     1.2890     1.8430 hc         1 0Y7       0.020700
     42 H12         -1.9940     3.0200     1.6830 hc         1 0Y7       0.020700
     43 H14         -1.2020     2.3950    -1.8510 hc         1 0Y7       0.040700
     44 H15         -0.8090     3.3650    -0.4420 hc         1 0Y7       0.040700
     45 H16          0.0760     1.3950     0.7220 hc         1 0Y7       0.077700
     46 H17          0.7440     1.7900    -2.9770 ha         1 0Y7       0.123000
     47 H18          2.9790     2.3370    -3.8310 ha         1 0Y7       0.109000
     48 H19          4.8920     2.5790    -2.2840 ha         1 0Y7       0.119000
     49 H20          2.2980     1.7080     1.0160 ha         1 0Y7       0.135000
     50 H21         -4.1860    -2.1940    -0.5130 hc         1 0Y7       0.038700
     51 H22         -3.0830    -3.5450    -0.5780 hc         1 0Y7       0.038700
     52 H23         -1.9250    -2.6990     1.4920 hc         1 0Y7       0.044033
     53 H24         -3.0970    -1.3830     1.5980 hc         1 0Y7       0.044033
     54 H25         -3.6280    -3.0520     1.7470 hc         1 0Y7       0.044033
@<TRIPOS>BOND
     1     1     2 1   
     2     2     3 ar  
     3     2     5 ar  
     4     3     4 ar  
     5     3    31 1   
     6     4     7 ar  
     7     4    32 1   
     8     5     6 ar  
     9     5    33 1   
    10     6     7 ar  
    11     6    34 1   
    12     7     8 1   
    13     8     9 1   
    14     8    21 1   
    15     8    35 1   
    16     9    10 1   
    17     9    13 1   
    18    10    11 1   
    19    10    29 1   
    20    10    36 1   
    21    11    12 1   
    22    11    37 1   
    23    11    38 1   
    24    12    39 1   
    25    13    14 2   
    26    13    15 1   
    27    15    16 1   
    28    15    20 1   
    29    15    40 1   
    30    16    17 1   
    31    16    41 1   
    32    16    42 1   
    33    17    18 1   
    34    17    19 1   
    35    20    21 1   
    36    20    43 1   
    37    20    44 1   
    38    21    22 1   
    39    21    45 1   
    40    22    23 ar  
    41    22    28 ar  
    42    23    24 ar  
    43    23    46 1   
    44    24    25 ar  
    45    24    47 1   
    46    25    26 ar  
    47    25    48 1   
    48    26    27 1   
    49    26    28 ar  
    50    28    49 1   
    51    29    30 1   
    52    29    50 1   
    53    29    51 1   
    54    30    52 1   
    55    30    53 1   
    56    30    54 1   
@<TRIPOS>SUBSTRUCTURE
     1 0Y7         1 TEMP              0 ****  ****    0 ROOT
