@<TRIPOS>MOLECULE
0Y8
   32    34     1     0     0
SMALL
abcg2


@<TRIPOS>ATOM
      1 C1           0.1380     3.5140    -0.0420 ca         1 0Y8       0.396900
      2 N2           0.8880     2.3890     0.0210 nb         1 0Y8      -0.765000
      3 C3          -1.2190     3.5140    -0.1470 ca         1 0Y8      -0.227000
      4 C4           0.2920     1.2380    -0.0240 ca         1 0Y8       0.640300
      5 C5          -1.8940     2.2690    -0.1970 ca         1 0Y8       0.027000
      6 C6          -1.1280     1.0860    -0.1360 ca         1 0Y8      -0.119000
      7 C7          -3.1210    -0.2310    -0.2940 ca         1 0Y8      -0.053900
      8 C8          -1.7570    -0.1730    -0.1860 ca         1 0Y8      -0.009000
      9 C9          -3.9050     0.9360    -0.3540 ca         1 0Y8      -0.068000
     10 C10         -3.2960     2.1610    -0.3060 ca         1 0Y8      -0.124000
     11 BR1         -3.9850    -1.9070    -0.3640 br         1 0Y8      -0.113100
     12 O12          0.9890     0.1090     0.0280 os         1 0Y8      -0.457300
     13 C13          2.4120     0.1670     0.0910 c5         1 0Y8       0.131300
     14 C14          2.9840    -1.2220    -0.1350 c5         1 0Y8      -0.075400
     15 C15          4.3990    -1.1010     0.4620 c5         1 0Y8       0.009500
     16 N16          4.3300    -0.0260     1.4580 n7         1 0Y8      -0.854400
     17 C17          2.9790     0.5160     1.4650 c5         1 0Y8       0.136800
     18 C18          5.4500    -0.8260    -0.6410 c          1 0Y8       0.704000
     19 O19          6.0270     0.2800    -0.6250 o          1 0Y8      -0.725500
     20 H1           0.6880     4.4460     0.0000 h4         1 0Y8       0.015100
     21 H2          -1.7730     4.4420    -0.1940 ha         1 0Y8       0.117000
     22 H3          -1.1640    -1.0760    -0.1390 ha         1 0Y8       0.152000
     23 H4          -4.9810     0.8710    -0.4360 ha         1 0Y8       0.119000
     24 H5          -3.8970     3.0600    -0.3540 ha         1 0Y8       0.113000
     25 H6           2.7840     0.8700    -0.6610 h1         1 0Y8       0.082700
     26 H7           2.3890    -1.9500     0.4230 hc         1 0Y8       0.049200
     27 H8           2.9910    -1.5320    -1.1790 hc         1 0Y8       0.049200
     28 H9           4.6740    -2.0520     0.9320 h1         1 0Y8       0.059700
     29 H10          2.9880     1.5850     1.6730 h1         1 0Y8       0.037700
     30 H11          2.3640     0.0340     2.2350 h1         1 0Y8       0.037700
     31 H12          4.9750     0.6890     1.1400 hn         1 0Y8       0.439000
     32 OXT          5.6230    -1.7490    -1.4590 o          1 0Y8      -0.725500
@<TRIPOS>BOND
     1     1     2 ar  
     2     1     3 ar  
     3     1    20 1   
     4     2     4 ar  
     5     3     5 ar  
     6     3    21 1   
     7     4     6 ar  
     8     4    12 1   
     9     5     6 ar  
    10     5    10 ar  
    11     6     8 ar  
    12     7     8 ar  
    13     7     9 ar  
    14     7    11 1   
    15     8    22 1   
    16     9    10 ar  
    17     9    23 1   
    18    10    24 1   
    19    12    13 1   
    20    13    14 1   
    21    13    17 1   
    22    13    25 1   
    23    14    15 1   
    24    14    26 1   
    25    14    27 1   
    26    15    16 1   
    27    15    18 1   
    28    15    28 1   
    29    16    17 1   
    30    16    31 1   
    31    17    29 1   
    32    17    30 1   
    33    18    19 1   
    34    18    32 1   
@<TRIPOS>SUBSTRUCTURE
     1 0Y8         1 TEMP              0 ****  ****    0 ROOT
