@<TRIPOS>MOLECULE
0Y8
   32    34     1     0     0
SMALL
No Charge or Current Charge


@<TRIPOS>ATOM
      1 C1           0.2140     3.6100    -0.9690 ca         1 0Y8       0.396900
      2 N2           0.9600     2.5060    -1.1790 nb         1 0Y8      -0.765000
      3 C3          -1.0940     3.5650    -0.4670 ca         1 0Y8      -0.227000
      4 C4           0.4160     1.3040    -0.8760 ca         1 0Y8       0.640300
      5 C5          -1.6710     2.3230    -0.1730 ca         1 0Y8       0.027000
      6 C6          -0.9040     1.1620    -0.3890 ca         1 0Y8      -0.119000
      7 C7          -2.7780    -0.1920     0.3890 ca         1 0Y8      -0.053900
      8 C8          -1.4650    -0.1030    -0.1060 ca         1 0Y8      -0.009000
      9 C9          -3.5380     0.9700     0.6040 ca         1 0Y8      -0.068000
     10 C10         -2.9840     2.2300     0.3220 ca         1 0Y8      -0.124000
     11 Br1         -3.5340    -1.9060     0.7740 br         1 0Y8      -0.113100
     12 O12          1.1550     0.1640    -1.1260 os         1 0Y8      -0.457300
     13 C13          2.4060     0.2120    -0.3810 c5         1 0Y8       0.131300
     14 C14          3.1410    -1.1240    -0.6250 c5         1 0Y8      -0.075400
     15 C15          4.1080    -1.1810     0.6030 c5         1 0Y8       0.009500
     16 N16          3.4280    -0.3960     1.7090 n7         1 0Y8      -0.854400
     17 C17          2.1320     0.0640     1.1450 c5         1 0Y8       0.136800
     18 C18          5.5220    -0.6130     0.1630 c          1 0Y8       0.704000
     19 O19          5.8100     0.5430     0.4500 o          1 0Y8      -0.725500
     20 H1           0.6810     4.5640    -1.2130 h4         1 0Y8       0.015100
     21 H2          -1.6470     4.4890    -0.3190 ha         1 0Y8       0.117000
     22 H3          -0.8930    -1.0150    -0.2640 ha         1 0Y8       0.152000
     23 H4          -4.5530     0.8960     0.9870 ha         1 0Y8       0.119000
     24 H5          -3.5730     3.1290     0.4870 ha         1 0Y8       0.113000
     25 H6           3.0200     1.0860    -0.6390 h1         1 0Y8       0.082700
     26 H7           2.4470    -1.9720    -0.6140 hc         1 0Y8       0.049200
     27 H8           3.6660    -1.1460    -1.5870 hc         1 0Y8       0.049200
     28 H9           4.2660    -2.2240     0.9100 h1         1 0Y8       0.059700
     29 H10          1.8050     1.0060     1.6070 h1         1 0Y8       0.037700
     30 H11          1.3510    -0.6890     1.3270 h1         1 0Y8       0.037700
     31 H12          4.0210     0.4350     1.8660 hn         1 0Y8       0.439000
     32 OXT          6.3290    -1.3670    -0.3620 o          1 0Y8      -0.725500
@<TRIPOS>BOND
     1     1     2 ar  
     2     1     3 ar  
     3     1    20 1   
     4     2     4 ar  
     5     3     5 ar  
     6     3    21 1   
     7     4     6 ar  
     8     4    12 1   
     9     5     6 ar  
    10     5    10 ar  
    11     6     8 ar  
    12     7     8 ar  
    13     7     9 ar  
    14     7    11 1   
    15     8    22 1   
    16     9    10 ar  
    17     9    23 1   
    18    10    24 1   
    19    12    13 1   
    20    13    14 1   
    21    13    17 1   
    22    13    25 1   
    23    14    15 1   
    24    14    26 1   
    25    14    27 1   
    26    15    16 1   
    27    15    18 1   
    28    15    28 1   
    29    16    17 1   
    30    16    31 1   
    31    17    29 1   
    32    17    30 1   
    33    18    19 1   
    34    18    32 1   
@<TRIPOS>SUBSTRUCTURE
     1 0Y8         1 TEMP              0 ****  ****    0 ROOT
