@<TRIPOS>MOLECULE
0Y9
   17    17     1     0     0
SMALL
abcg2


@<TRIPOS>ATOM
      1 N20         -1.2800     1.5610    -0.7900 n8         1 0Y9      -0.952200
      2 C21         -0.5510     0.6650     0.0720 cx         1 0Y9       0.035200
      3 C22          0.9590     0.7760    -0.0340 cx         1 0Y9      -0.108500
      4 C23          0.2430     1.2030     1.2250 cx         1 0Y9      -0.165400
      5 C24          1.8750    -0.3750    -0.0620 c2         1 0Y9      -0.114200
      6 C25          2.9510    -0.4460    -0.8440 c2         1 0Y9      -0.395000
      7 C26         -1.2080    -0.7040     0.2400 c          1 0Y9       0.746000
      8 O27         -0.6960    -1.4900     1.0620 o          1 0Y9      -0.722500
      9 H12         -2.2490     1.5890    -0.4980 hn         1 0Y9       0.377500
     10 H13          1.2740     1.5940    -0.6780 hc         1 0Y9       0.046700
     11 H14          0.1970     2.2670     1.4310 hc         1 0Y9       0.057700
     12 H15          0.3630     0.5780     2.1010 hc         1 0Y9       0.057700
     13 H16          1.6410    -1.1980     0.6020 ha         1 0Y9       0.202000
     14 H17          3.2200     0.3530    -1.5260 ha         1 0Y9       0.139500
     15 H18          3.6020    -1.3100    -0.8310 ha         1 0Y9       0.139500
     16 H2          -0.9260     2.5040    -0.6860 hn         1 0Y9       0.377500
     17 OXT         -2.2230    -0.9160    -0.4510 o          1 0Y9      -0.722500
@<TRIPOS>BOND
     1     1     2 1   
     2     1     9 1   
     3     1    16 1   
     4     2     3 1   
     5     2     4 1   
     6     2     7 1   
     7     3     4 1   
     8     3     5 1   
     9     3    10 1   
    10     4    11 1   
    11     4    12 1   
    12     5     6 2   
    13     5    13 1   
    14     6    14 1   
    15     6    15 1   
    16     7     8 1   
    17     7    17 1   
@<TRIPOS>SUBSTRUCTURE
     1 0Y9         1 TEMP              0 ****  ****    0 ROOT
