@<TRIPOS>MOLECULE
0Y9
   17    17     1     0     0
SMALL
No Charge or Current Charge


@<TRIPOS>ATOM
      1 N20         -1.3940     1.6690    -0.6180 n8         1 0Y9      -0.952200
      2 C21         -0.5640     0.6590     0.0650 cx         1 0Y9       0.035200
      3 C22          0.9440     0.8150    -0.1060 cx         1 0Y9      -0.108500
      4 C23          0.2880     1.2060     1.1930 cx         1 0Y9      -0.165400
      5 C24          1.8600    -0.3640    -0.1280 c2         1 0Y9      -0.114200
      6 C25          2.8980    -0.4980    -0.9680 c2         1 0Y9      -0.395000
      7 C26         -1.1410    -0.7910     0.2470 c          1 0Y9       0.746000
      8 O27         -1.7130    -1.0610     1.2970 o          1 0Y9      -0.722500
      9 H12         -2.2680     1.8020    -0.0950 hn         1 0Y9       0.377500
     10 H13          1.2760     1.6320    -0.7430 hc         1 0Y9       0.046700
     11 H14          0.2260     2.2670     1.4250 hc         1 0Y9       0.057700
     12 H15          0.4560     0.5690     2.0590 hc         1 0Y9       0.057700
     13 H16          1.6500    -1.1480     0.6060 ha         1 0Y9       0.202000
     14 H17          3.1380     0.2660    -1.7090 ha         1 0Y9       0.139500
     15 H18          3.5410    -1.3780    -0.9410 ha         1 0Y9       0.139500
     16 H2          -0.9330     2.5830    -0.5590 hn         1 0Y9       0.377500
     17 OXT         -1.0700    -1.5760    -0.6930 o          1 0Y9      -0.722500
@<TRIPOS>BOND
     1     1     2 1   
     2     1     9 1   
     3     1    16 1   
     4     2     3 1   
     5     2     4 1   
     6     2     7 1   
     7     3     4 1   
     8     3     5 1   
     9     3    10 1   
    10     4    11 1   
    11     4    12 1   
    12     5     6 2   
    13     5    13 1   
    14     6    14 1   
    15     6    15 1   
    16     7     8 1   
    17     7    17 1   
@<TRIPOS>SUBSTRUCTURE
     1 0Y9         1 TEMP              0 ****  ****    0 ROOT
