@<TRIPOS>MOLECULE
0YA
   14    14     1     0     0
SMALL
bcc


@<TRIPOS>ATOM
      1 N28          1.5490    -0.9570     0.6770 n8         1 0YA      -0.882700
      2 S29          0.6490     0.2120    -0.0520 s6         1 0YA       1.251900
      3 O30          1.2720     1.4820     0.2890 o          1 0YA      -0.598300
      4 O31          0.5230    -0.1710    -1.4510 o          1 0YA      -0.598300
      5 C32         -0.9530     0.1720     0.6790 cx         1 0YA      -0.355900
      6 C33         -1.9570    -0.8200     0.1840 cx         1 0YA      -0.062900
      7 C34         -2.1230     0.6280    -0.1360 cx         1 0YA      -0.062900
      8 H19          1.7280    -0.7780     1.6590 hn         1 0YA       0.419800
      9 H20         -0.9220     0.4110     1.7360 h1         1 0YA       0.122700
     10 H21         -1.6740    -1.4860    -0.6210 hc         1 0YA       0.086950
     11 H22         -2.5970    -1.2660     0.9330 hc         1 0YA       0.086950
     12 H23         -2.8770     1.1980     0.3890 hc         1 0YA       0.086950
     13 H24         -1.9490     0.9440    -1.1570 hc         1 0YA       0.086950
     14 H2           1.1930    -1.8960     0.5340 hn         1 0YA       0.419800
@<TRIPOS>BOND
     1     1     2 1   
     2     1     8 1   
     3     1    14 1   
     4     2     3 2   
     5     2     4 2   
     6     2     5 1   
     7     5     6 1   
     8     5     7 1   
     9     5     9 1   
    10     6     7 1   
    11     6    10 1   
    12     6    11 1   
    13     7    12 1   
    14     7    13 1   
@<TRIPOS>SUBSTRUCTURE
     1 0YA         1 TEMP              0 ****  ****    0 ROOT
