@<TRIPOS>MOLECULE
0YA
   14    14     1     0     0
SMALL
No Charge or Current Charge


@<TRIPOS>ATOM
      1 N28          1.3860    -1.0990     0.6200 n8         1 0YA      -0.993100
      2 S29          0.7390     0.2460    -0.0380 s6         1 0YA       1.221100
      3 O30          1.4080     1.3760     0.6010 o          1 0YA      -0.527500
      4 O31          0.7260     0.0640    -1.4890 o          1 0YA      -0.527500
      5 C32         -0.9590     0.0930     0.6450 cx         1 0YA      -0.466700
      6 C33         -1.9450    -0.9060     0.0710 cx         1 0YA      -0.062900
      7 C34         -2.1550     0.5770    -0.1510 cx         1 0YA      -0.062900
      8 H19          2.1410    -0.7050     1.1750 hn         1 0YA       0.475000
      9 H20         -0.9360     0.2740     1.7180 h1         1 0YA       0.122700
     10 H21         -1.6420    -1.5040    -0.7870 hc         1 0YA       0.086950
     11 H22         -2.6200    -1.4130     0.7570 hc         1 0YA       0.086950
     12 H23         -2.9680     1.0580     0.3890 hc         1 0YA       0.086950
     13 H24         -1.9920     0.9630    -1.1560 hc         1 0YA       0.086950
     14 H2           0.6790    -1.3510     1.3050 hn         1 0YA       0.475000
@<TRIPOS>BOND
     1     1     2 1   
     2     1     8 1   
     3     1    14 1   
     4     2     3 2   
     5     2     4 2   
     6     2     5 1   
     7     5     6 1   
     8     5     7 1   
     9     5     9 1   
    10     6     7 1   
    11     6    10 1   
    12     6    11 1   
    13     7    12 1   
    14     7    13 1   
@<TRIPOS>SUBSTRUCTURE
     1 0YA         1 TEMP              0 ****  ****    0 ROOT
