@<TRIPOS>MOLECULE
0YB
   71    74     1     0     0
SMALL
abcg2


@<TRIPOS>ATOM
      1 C31          1.2260    -4.9810    -0.7030 ca         1 0YB      -0.085000
      2 C24          2.1750     1.5670    -2.2220 ca         1 0YB      -0.095000
      3 C23          1.8530     2.2850    -1.0850 ca         1 0YB      -0.113000
      4 C30          2.1820    -3.9810    -0.6760 ca         1 0YB      -0.135000
      5 C32         -0.1210    -4.6870    -0.8810 ca         1 0YB      -0.146000
      6 C27          2.1710     0.3200     0.2260 ca         1 0YB      -0.145000
      7 C34          0.4540    -2.3310    -1.0160 ca         1 0YB      -0.151000
      8 C25          2.4720     0.2030    -2.1830 ca         1 0YB      -0.119600
      9 C22          1.8670     1.6700     0.1630 ca         1 0YB      -0.112300
     10 C29          1.7950    -2.6530    -0.8350 ca         1 0YB       0.211100
     11 C26          2.4590    -0.3990    -0.9280 ca         1 0YB       0.092100
     12 C33         -0.4790    -3.3570    -1.0320 ca         1 0YB       0.022100
     13 C3          -3.5230     1.1730    -0.8340 cc         1 0YB       0.000600
     14 C2          -4.3580     0.2170    -1.2800 cd         1 0YB      -0.267400
     15 C8          -4.8290    -0.7620    -0.3260 c          1 0YB       0.589200
     16 C5          -3.5030     0.3970     1.4170 c          1 0YB       0.618000
     17 C12         -1.6490     4.4730     1.9750 c6         1 0YB      -0.075400
     18 C11         -2.6920     3.3740     1.8190 c6         1 0YB      -0.090400
     19 C13         -0.2690     3.9090     2.2900 c6         1 0YB       0.163800
     20 C15         -0.7780     1.8690     1.1740 c6         1 0YB       0.144800
     21 C10         -2.1610     2.3860     0.7930 c6         1 0YB       0.122700
     22 C1          -4.7950     0.1140    -2.7030 c3         1 0YB      -0.017900
     23 C19          4.7200     4.4700     2.4090 c3         1 0YB      -0.084767
     24 C20          4.7580     2.7800     0.6040 c3         1 0YB      -0.084767
     25 C21          4.1690     2.1070     2.9450 c3         1 0YB      -0.084767
     26 C17          2.5510     3.5770     1.6670 c3         1 0YB      -0.059400
     27 C16          1.5320     2.4560     1.4090 c3         1 0YB       0.244800
     28 N7          -4.3640    -0.5690     0.9600 ns         1 0YB      -0.463500
     29 N4          -3.0900     1.2940     0.4610 n          1 0YB      -0.301000
     30 N14          0.1640     2.9770     1.2560 n3         1 0YB      -0.720600
     31 O37          2.5980    -1.7610    -3.5010 o          1 0YB      -0.703500
     32 O38          3.1620     0.1840    -4.4300 o          1 0YB      -0.703500
     33 O28          2.7760    -1.7280    -0.7640 os         1 0YB      -0.231200
     34 BR3         -2.3040    -2.9180    -1.2670 br         1 0YB      -0.133100
     35 H1           1.5310    -6.0120    -0.5810 ha         1 0YB       0.100000
     36 H2           2.1840     2.0680    -3.1810 ha         1 0YB       0.135000
     37 H3           1.6010     3.3350    -1.1670 ha         1 0YB       0.103000
     38 H4           3.2270    -4.2220    -0.5320 ha         1 0YB       0.123000
     39 H5          -0.8590    -5.4770    -0.8970 ha         1 0YB       0.114000
     40 H6           2.1860    -0.1900     1.1830 ha         1 0YB       0.104000
     41 H7           0.1440    -1.3030    -1.1470 ha         1 0YB       0.138000
     42 H8          -3.1370     1.9230    -1.5120 h4         1 0YB       0.208000
     43 H9          -1.5910     5.0620     1.0550 hc         1 0YB       0.043200
     44 H10         -1.9400     5.1580     2.7730 hc         1 0YB       0.043200
     45 H11         -2.8570     2.8850     2.7790 hc         1 0YB       0.055200
     46 H12         -3.6470     3.7880     1.4900 hc         1 0YB       0.055200
     47 H13          0.4230     4.7450     2.3470 h1         1 0YB       0.032200
     48 H14         -0.2840     3.4320     3.2850 h1         1 0YB       0.032200
     49 H15         -0.8160     1.3100     2.1210 h1         1 0YB       0.062700
     50 H16         -0.4520     1.1720     0.4010 h1         1 0YB       0.062700
     51 H17         -2.0330     2.9310    -0.1440 h1         1 0YB       0.067700
     52 H18         -4.4940    -0.8390    -3.1430 hc         1 0YB       0.045700
     53 H19         -5.8800     0.1830    -2.7940 hc         1 0YB       0.045700
     54 H20         -4.3580     0.9110    -3.3030 hc         1 0YB       0.045700
     55 H21          4.6460     5.2870     1.6880 hc         1 0YB       0.032811
     56 H22          4.2690     4.8080     3.3450 hc         1 0YB       0.032811
     57 H23          5.7810     4.2910     2.5970 hc         1 0YB       0.032811
     58 H24          4.6100     3.5110    -0.1930 hc         1 0YB       0.032811
     59 H25          5.8330     2.7090     0.7900 hc         1 0YB       0.032811
     60 H26          4.4290     1.8130     0.2270 hc         1 0YB       0.032811
     61 H27          5.2190     1.9340     3.1880 hc         1 0YB       0.032811
     62 H28          3.6590     2.3870     3.8700 hc         1 0YB       0.032811
     63 H29          3.7560     1.1530     2.6120 hc         1 0YB       0.032811
     64 H30          2.4810     4.3160     0.8610 hc         1 0YB       0.036700
     65 H31          2.2480     4.0930     2.5790 hc         1 0YB       0.036700
     66 H32          1.5690     1.7650     2.2690 h1         1 0YB       0.025700
     67 H33         -4.6640    -1.2380     1.6590 hn         1 0YB       0.337500
     68 C18          4.0340     3.2020     1.8850 c3         1 0YB      -0.036000
     69 O9          -5.5660    -1.6980    -0.5870 o          1 0YB      -0.543000
     70 C36          2.7760    -0.5320    -3.4860 c          1 0YB       0.716600
     71 O6          -3.1490     0.4300     2.5790 o          1 0YB      -0.569000
@<TRIPOS>BOND
     1     1     4 ar  
     2     1     5 ar  
     3     1    35 1   
     4     2     3 ar  
     5     2     8 ar  
     6     2    36 1   
     7     3     9 ar  
     8     3    37 1   
     9     4    10 ar  
    10     4    38 1   
    11     5    12 ar  
    12     5    39 1   
    13     6     9 ar  
    14     6    11 ar  
    15     6    40 1   
    16     7    10 ar  
    17     7    12 ar  
    18     7    41 1   
    19     8    11 ar  
    20     8    70 1   
    21     9    27 1   
    22    10    33 1   
    23    11    33 1   
    24    12    34 1   
    25    13    14 2   
    26    13    29 1   
    27    13    42 1   
    28    14    15 1   
    29    14    22 1   
    30    15    28 1   
    31    15    69 2   
    32    16    28 1   
    33    16    29 1   
    34    16    71 2   
    35    17    18 1   
    36    17    19 1   
    37    17    43 1   
    38    17    44 1   
    39    18    21 1   
    40    18    45 1   
    41    18    46 1   
    42    19    30 1   
    43    19    47 1   
    44    19    48 1   
    45    20    21 1   
    46    20    30 1   
    47    20    49 1   
    48    20    50 1   
    49    21    29 1   
    50    21    51 1   
    51    22    52 1   
    52    22    53 1   
    53    22    54 1   
    54    23    55 1   
    55    23    56 1   
    56    23    57 1   
    57    23    68 1   
    58    24    58 1   
    59    24    59 1   
    60    24    60 1   
    61    24    68 1   
    62    25    61 1   
    63    25    62 1   
    64    25    63 1   
    65    25    68 1   
    66    26    27 1   
    67    26    64 1   
    68    26    65 1   
    69    26    68 1   
    70    27    30 1   
    71    27    66 1   
    72    28    67 1   
    73    31    70 1   
    74    32    70 1   
@<TRIPOS>SUBSTRUCTURE
     1 0YB         1 TEMP              0 ****  ****    0 ROOT
