@<TRIPOS>MOLECULE
0YB
   71    74     1     0     0
SMALL
No Charge or Current Charge


@<TRIPOS>ATOM
      1 C31          1.8020    -4.6970     0.4690 ca         1 0YB      -0.085000
      2 C24          2.3190     1.8400    -2.4750 ca         1 0YB      -0.095000
      3 C23          1.9770     2.4570    -1.2600 ca         1 0YB      -0.113000
      4 C30          2.5890    -3.7200    -0.1660 ca         1 0YB      -0.135000
      5 C32          0.4060    -4.5400     0.5280 ca         1 0YB      -0.146000
      6 C27          2.1570     0.3200    -0.1230 ca         1 0YB      -0.145000
      7 C34          0.5860    -2.4330    -0.6800 ca         1 0YB      -0.151000
      8 C25          2.5800     0.4540    -2.5290 ca         1 0YB      -0.119600
      9 C22          1.9060     1.7050    -0.0710 ca         1 0YB      -0.112300
     10 C29          1.9850    -2.5840    -0.7320 ca         1 0YB       0.211100
     11 C26          2.4900    -0.3040    -1.3420 ca         1 0YB       0.092100
     12 C33         -0.1990    -3.4110    -0.0490 ca         1 0YB       0.022100
     13 C3          -3.8840     1.4890    -1.0900 cc         1 0YB       0.000600
     14 C2          -4.7920     0.5690    -1.5690 cd         1 0YB      -0.267400
     15 C8          -5.1360    -0.6250    -0.7610 c          1 0YB       0.589200
     16 C5          -3.5730     0.1760     0.9430 c          1 0YB       0.618000
     17 C12         -1.7610     4.1860     2.2780 c6         1 0YB      -0.075400
     18 C11         -2.7940     3.1060     1.8940 c6         1 0YB      -0.090400
     19 C13         -0.3400     3.5860     2.4410 c6         1 0YB       0.163800
     20 C15         -0.8470     1.8000     0.8230 c6         1 0YB       0.144800
     21 C10         -2.2970     2.3350     0.6480 c6         1 0YB       0.122700
     22 C1          -5.4870     0.7000    -2.9060 c3         1 0YB      -0.017900
     23 C19          4.8650     4.2320     2.4920 c3         1 0YB      -0.084767
     24 C20          4.8200     2.6920     0.5180 c3         1 0YB      -0.084767
     25 C21          4.2200     1.8190     2.8240 c3         1 0YB      -0.084767
     26 C17          2.6070     3.4580     1.6680 c3         1 0YB      -0.059400
     27 C16          1.5420     2.3770     1.2600 c3         1 0YB       0.244800
     28 N7          -4.4830    -0.6890     0.4260 ns         1 0YB      -0.463500
     29 N4          -3.2700     1.3130     0.1550 n          1 0YB      -0.301000
     30 N14          0.1270     2.8830     1.2030 n3         1 0YB      -0.720600
     31 O37          2.2990    -1.1560    -4.2230 o          1 0YB      -0.703500
     32 O38          3.8130     0.3470    -4.5180 o          1 0YB      -0.703500
     33 O28          2.7800    -1.6500    -1.3580 os         1 0YB      -0.231200
     34 Br3         -2.0970    -3.2110     0.0150 br         1 0YB      -0.133100
     35 H1           2.2710    -5.5730     0.9110 ha         1 0YB       0.100000
     36 H2           2.3770     2.4380    -3.3820 ha         1 0YB       0.135000
     37 H3           1.7710     3.5240    -1.2410 ha         1 0YB       0.103000
     38 H4           3.6680    -3.8380    -0.2160 ha         1 0YB       0.123000
     39 H5          -0.2050    -5.2960     1.0160 ha         1 0YB       0.114000
     40 H6           2.1080    -0.2710     0.7880 ha         1 0YB       0.104000
     41 H7           0.1100    -1.5680    -1.1330 ha         1 0YB       0.138000
     42 H8          -3.5760     2.3910    -1.6110 h4         1 0YB       0.208000
     43 H9          -1.7380     4.9690     1.5080 hc         1 0YB       0.043200
     44 H10         -2.0640     4.6760     3.2130 hc         1 0YB       0.043200
     45 H11         -2.9390     2.4250     2.7420 hc         1 0YB       0.055200
     46 H12         -3.7680     3.5710     1.6880 hc         1 0YB       0.055200
     47 H13          0.3180     4.4270     2.6940 h1         1 0YB       0.032200
     48 H14         -0.3330     2.8950     3.2980 h1         1 0YB       0.032200
     49 H15         -0.8360     1.0080     1.5850 h1         1 0YB       0.062700
     50 H16         -0.5640     1.3280    -0.1280 h1         1 0YB       0.062700
     51 H17         -2.2120     3.0950    -0.1410 h1         1 0YB       0.067700
     52 H18         -5.2600    -0.1540    -3.5560 hc         1 0YB       0.045700
     53 H19         -6.5760     0.7490    -2.7840 hc         1 0YB       0.045700
     54 H20         -5.1730     1.6090    -3.4350 hc         1 0YB       0.045700
     55 H21          4.8150     5.1130     1.8410 hc         1 0YB       0.032811
     56 H22          4.4340     4.5040     3.4640 hc         1 0YB       0.032811
     57 H23          5.9240     3.9940     2.6550 hc         1 0YB       0.032811
     58 H24          4.6300     3.4660    -0.2350 hc         1 0YB       0.032811
     59 H25          5.9050     2.6220     0.6600 hc         1 0YB       0.032811
     60 H26          4.4990     1.7270     0.1130 hc         1 0YB       0.032811
     61 H27          5.2700     1.5890     3.0420 hc         1 0YB       0.032811
     62 H28          3.7150     2.0280     3.7750 hc         1 0YB       0.032811
     63 H29          3.7690     0.9200     2.3890 hc         1 0YB       0.032811
     64 H30          2.5590     4.2880     0.9540 hc         1 0YB       0.036700
     65 H31          2.3040     3.8770     2.6320 hc         1 0YB       0.036700
     66 H32          1.5740     1.6030     2.0380 h1         1 0YB       0.025700
     67 H33         -4.6890    -1.4930     0.9960 hn         1 0YB       0.337500
     68 C18          4.1090     3.0300     1.8590 c3         1 0YB      -0.036000
     69 O9          -5.9270    -1.4900    -1.0970 o          1 0YB      -0.543000
     70 C36          2.9430    -0.1870    -3.8440 c          1 0YB       0.716600
     71 O6          -3.0710    -0.0530     2.0310 o          1 0YB      -0.569000
@<TRIPOS>BOND
     1     1     4 ar  
     2     1     5 ar  
     3     1    35 1   
     4     2     3 ar  
     5     2     8 ar  
     6     2    36 1   
     7     3     9 ar  
     8     3    37 1   
     9     4    10 ar  
    10     4    38 1   
    11     5    12 ar  
    12     5    39 1   
    13     6     9 ar  
    14     6    11 ar  
    15     6    40 1   
    16     7    10 ar  
    17     7    12 ar  
    18     7    41 1   
    19     8    11 ar  
    20     8    70 1   
    21     9    27 1   
    22    10    33 1   
    23    11    33 1   
    24    12    34 1   
    25    13    14 2   
    26    13    29 1   
    27    13    42 1   
    28    14    15 1   
    29    14    22 1   
    30    15    28 1   
    31    15    69 2   
    32    16    28 1   
    33    16    29 1   
    34    16    71 2   
    35    17    18 1   
    36    17    19 1   
    37    17    43 1   
    38    17    44 1   
    39    18    21 1   
    40    18    45 1   
    41    18    46 1   
    42    19    30 1   
    43    19    47 1   
    44    19    48 1   
    45    20    21 1   
    46    20    30 1   
    47    20    49 1   
    48    20    50 1   
    49    21    29 1   
    50    21    51 1   
    51    22    52 1   
    52    22    53 1   
    53    22    54 1   
    54    23    55 1   
    55    23    56 1   
    56    23    57 1   
    57    23    68 1   
    58    24    58 1   
    59    24    59 1   
    60    24    60 1   
    61    24    68 1   
    62    25    61 1   
    63    25    62 1   
    64    25    63 1   
    65    25    68 1   
    66    26    27 1   
    67    26    64 1   
    68    26    65 1   
    69    26    68 1   
    70    27    30 1   
    71    27    66 1   
    72    28    67 1   
    73    31    70 1   
    74    32    70 1   
@<TRIPOS>SUBSTRUCTURE
     1 0YB         1 TEMP              0 ****  ****    0 ROOT
