@<TRIPOS>MOLECULE
0YC
   16    16     1     0     0
SMALL
bcc


@<TRIPOS>ATOM
      1 N16         -2.7280    -0.6290    -0.3730 n8         1 0YC      -0.889800
      2 C17         -1.9690     0.2610     0.4860 c3         1 0YC       0.203100
      3 C18         -0.4890     0.1990     0.2090 ca         1 0YC      -0.205600
      4 C22          0.1220    -0.9530    -0.2780 ca         1 0YC       0.422200
      5 N23          1.4270    -1.0630    -0.5040 nb         1 0YC      -0.670000
      6 C24          2.1960    -0.0110    -0.2510 ca         1 0YC       0.399200
      7 C25          1.6960     1.1900     0.2300 ca         1 0YC      -0.250300
      8 C26          0.3330     1.2920     0.4580 ca         1 0YC      -0.096000
      9 H13         -3.6900    -0.6500    -0.0630 hn         1 0YC       0.343800
     10 H14         -2.2860     1.3120     0.4360 h1         1 0YC       0.035700
     11 H15         -2.1370    -0.0480     1.5220 h1         1 0YC       0.035700
     12 H22         -0.4820    -1.8250    -0.5010 h4         1 0YC       0.037100
     13 H23          3.2580    -0.1260    -0.4410 h4         1 0YC       0.017100
     14 H24          2.3590     2.0230     0.4150 ha         1 0YC       0.140000
     15 H25         -0.0910     2.2190     0.8260 ha         1 0YC       0.131000
     16 H2          -2.7440    -0.2610    -1.3160 hn         1 0YC       0.343800
@<TRIPOS>BOND
     1     1     2 1   
     2     1     9 1   
     3     1    16 1   
     4     2     3 1   
     5     2    10 1   
     6     2    11 1   
     7     3     4 ar  
     8     3     8 ar  
     9     4     5 ar  
    10     4    12 1   
    11     5     6 ar  
    12     6     7 ar  
    13     6    13 1   
    14     7     8 ar  
    15     7    14 1   
    16     8    15 1   
@<TRIPOS>SUBSTRUCTURE
     1 0YC         1 TEMP              0 ****  ****    0 ROOT
