@<TRIPOS>MOLECULE
0YC
   16    16     1     0     0
SMALL
No Charge or Current Charge


@<TRIPOS>ATOM
      1 N16         -2.7460    -0.0580    -0.6530 n8         1 0YC      -1.000200
      2 C17         -1.9610    -0.0550     0.5920 c3         1 0YC       0.203100
      3 C18         -0.4740     0.0140     0.2970 ca         1 0YC      -0.140300
      4 C22          0.2790    -1.1690     0.1570 ca         1 0YC       0.356900
      5 N23          1.6110    -1.1770    -0.0960 nb         1 0YC      -0.670000
      6 C24          2.2350     0.0180    -0.2190 ca         1 0YC       0.333900
      7 C25          1.5640     1.2460    -0.0940 ca         1 0YC      -0.167000
      8 C26          0.1840     1.2520     0.1690 ca         1 0YC      -0.078000
      9 H13         -3.7450    -0.0210    -0.4150 hn         1 0YC       0.399000
     10 H14         -2.2600     0.8090     1.2010 h1         1 0YC       0.035700
     11 H15         -2.1890    -0.9690     1.1590 h1         1 0YC       0.035700
     12 H22         -0.1990    -2.1440     0.2520 h4         1 0YC       0.037100
     13 H23          3.3050    -0.0120    -0.4220 h4         1 0YC       0.017100
     14 H24          2.1120     2.1780    -0.2010 ha         1 0YC       0.122000
     15 H25         -0.3580     2.1900     0.2720 ha         1 0YC       0.113000
     16 H2          -2.5830     0.8280    -1.1460 hn         1 0YC       0.399000
@<TRIPOS>BOND
     1     1     2 1   
     2     1     9 1   
     3     1    16 1   
     4     2     3 1   
     5     2    10 1   
     6     2    11 1   
     7     3     4 ar  
     8     3     8 ar  
     9     4     5 ar  
    10     4    12 1   
    11     5     6 ar  
    12     6     7 ar  
    13     6    13 1   
    14     7     8 ar  
    15     7    14 1   
    16     8    15 1   
@<TRIPOS>SUBSTRUCTURE
     1 0YC         1 TEMP              0 ****  ****    0 ROOT
