@<TRIPOS>MOLECULE
0YD
   36    38     1     0     0
SMALL
abcg2


@<TRIPOS>ATOM
      1 C1          -6.0630     0.6360    -0.5090 c3         1 0YD      -0.209400
      2 CL1          6.6470     2.2640    -0.7900 cl         1 0YD      -0.214000
      3 C2          -5.3780     0.0370     0.7190 c3         1 0YD      -0.109700
      4 O2          -7.9840     0.9660     0.8750 o          1 0YD      -0.733500
      5 C3          -3.9970    -0.4180     0.4230 cc         1 0YD       0.226300
      6 C4          -2.7750     0.1070     0.6800 cd         1 0YD      -0.283000
      7 C5          -1.8720    -0.8090     0.0790 cd         1 0YD       0.316500
      8 C6          -0.4090    -0.7480     0.0410 ca         1 0YD      -0.103500
      9 C7           0.3450    -1.8040    -0.4740 ca         1 0YD      -0.087500
     10 C8           1.7240    -1.7310    -0.5140 ca         1 0YD      -0.105500
     11 C9           2.4000    -0.6020    -0.0450 cp         1 0YD      -0.049000
     12 C10          1.6430     0.4500     0.4700 ca         1 0YD      -0.105500
     13 C11          0.2610     0.3780     0.5130 ca         1 0YD      -0.087500
     14 C12         -7.4960     1.1440    -0.2570 c          1 0YD       0.721000
     15 N12         -2.5200    -1.7930    -0.4840 nc         1 0YD      -0.394300
     16 O12         -3.8410    -1.5520    -0.2710 os         1 0YD      -0.062700
     17 C18          3.8720    -0.5250    -0.0970 cp         1 0YD      -0.010000
     18 C19          4.5020     0.6870    -0.3800 ca         1 0YD      -0.096000
     19 C20          5.8840     0.7500    -0.4260 ca         1 0YD       0.120000
     20 C21          6.6710    -0.3680    -0.1980 ca         1 0YD      -0.110000
     21 C22          6.0420    -1.5730     0.0830 ca         1 0YD      -0.105000
     22 C23          4.6590    -1.6550     0.1330 ca         1 0YD      -0.102000
     23 H1          -5.4630     1.4660    -0.8950 hc         1 0YD       0.029700
     24 H2          -6.0980    -0.1020    -1.3170 hc         1 0YD       0.029700
     25 H4          -5.3200     0.7780     1.5160 hc         1 0YD       0.070200
     26 H5          -5.9640    -0.7990     1.1060 hc         1 0YD       0.070200
     27 H7          -2.5570     1.0120     1.2210 ha         1 0YD       0.147000
     28 H8          -0.1490    -2.6890    -0.8520 ha         1 0YD       0.129000
     29 H9           2.2810    -2.5580    -0.9360 ha         1 0YD       0.111000
     30 H12          2.1350     1.3310     0.8620 ha         1 0YD       0.111000
     31 H13         -0.2920     1.2130     0.9230 ha         1 0YD       0.129000
     32 H19          3.9150     1.5730    -0.5840 ha         1 0YD       0.134000
     33 H20          7.7490    -0.3040    -0.2370 ha         1 0YD       0.124000
     34 H21          6.6410    -2.4540     0.2720 ha         1 0YD       0.114000
     35 H22          4.1920    -2.6010     0.3750 ha         1 0YD       0.121000
     36 OXT         -8.0500     1.6940    -1.2300 o          1 0YD      -0.733500
@<TRIPOS>BOND
     1     1     3 1   
     2     1    14 1   
     3     1    23 1   
     4     1    24 1   
     5     2    19 1   
     6     3     5 1   
     7     3    25 1   
     8     3    26 1   
     9     4    14 1   
    10     5     6 2   
    11     5    16 1   
    12     6     7 1   
    13     6    27 1   
    14     7     8 1   
    15     7    15 2   
    16     8     9 ar  
    17     8    13 ar  
    18     9    10 ar  
    19     9    28 1   
    20    10    11 ar  
    21    10    29 1   
    22    11    12 ar  
    23    11    17 1   
    24    12    13 ar  
    25    12    30 1   
    26    13    31 1   
    27    14    36 1   
    28    15    16 1   
    29    17    18 ar  
    30    17    22 ar  
    31    18    19 ar  
    32    18    32 1   
    33    19    20 ar  
    34    20    21 ar  
    35    20    33 1   
    36    21    22 ar  
    37    21    34 1   
    38    22    35 1   
@<TRIPOS>SUBSTRUCTURE
     1 0YD         1 TEMP              0 ****  ****    0 ROOT
