@<TRIPOS>MOLECULE
0YD
   36    38     1     0     0
SMALL
No Charge or Current Charge


@<TRIPOS>ATOM
      1 C1          -6.1790     0.5700    -0.5990 c3         1 0YD      -0.209400
      2 Cl1          6.7220     2.3430    -0.8400 cl         1 0YD      -0.214000
      3 C2          -5.4080     0.1810     0.6890 c3         1 0YD      -0.109700
      4 O2          -8.4960     0.4180    -0.1160 o          1 0YD      -0.733500
      5 C3          -4.0540    -0.4120     0.4150 cc         1 0YD       0.226300
      6 C4          -2.8070     0.1160     0.5020 cd         1 0YD      -0.283000
      7 C5          -1.9100    -0.9050     0.1270 cd         1 0YD       0.316500
      8 C6          -0.4330    -0.8050     0.0620 ca         1 0YD      -0.103500
      9 C7           0.3490    -1.8830    -0.4120 ca         1 0YD      -0.087500
     10 C8           1.7500    -1.7880    -0.4640 ca         1 0YD      -0.105500
     11 C9           2.4240    -0.6170    -0.0450 cp         1 0YD      -0.049000
     12 C10          1.6340     0.4570     0.4330 ca         1 0YD      -0.105500
     13 C11          0.2330     0.3650     0.4880 ca         1 0YD      -0.087500
     14 C12         -7.5470     1.1760    -0.2460 c          1 0YD       0.721000
     15 N12         -2.5490    -2.0250    -0.1810 nc         1 0YD      -0.394300
     16 O12         -3.9480    -1.7170     0.0050 os         1 0YD      -0.062700
     17 C18          3.9180    -0.5170    -0.1020 cp         1 0YD      -0.010000
     18 C19          4.5590     0.7120    -0.4040 ca         1 0YD      -0.096000
     19 C20          5.9590     0.8050    -0.4580 ca         1 0YD       0.120000
     20 C21          6.7520    -0.3260    -0.2120 ca         1 0YD      -0.110000
     21 C22          6.1410    -1.5540     0.0900 ca         1 0YD      -0.105000
     22 C23          4.7390    -1.6470     0.1430 ca         1 0YD      -0.102000
     23 H1          -5.5530     1.3110    -1.1110 hc         1 0YD       0.029700
     24 H2          -6.3090    -0.3620    -1.1640 hc         1 0YD       0.029700
     25 H4          -5.2910     1.0690     1.3230 hc         1 0YD       0.070200
     26 H5          -6.0040    -0.5350     1.2680 hc         1 0YD       0.070200
     27 H7          -2.5680     1.1290     0.7990 ha         1 0YD       0.147000
     28 H8          -0.1240    -2.8030    -0.7490 ha         1 0YD       0.129000
     29 H9           2.3170    -2.6320    -0.8500 ha         1 0YD       0.111000
     30 H12          2.1120     1.3690     0.7810 ha         1 0YD       0.111000
     31 H13         -0.3270     1.2140     0.8700 ha         1 0YD       0.129000
     32 H19          3.9670     1.5990    -0.6120 ha         1 0YD       0.134000
     33 H20          7.8360    -0.2510    -0.2540 ha         1 0YD       0.124000
     34 H21          6.7530    -2.4330     0.2840 ha         1 0YD       0.114000
     35 H22          4.2860    -2.6040     0.3910 ha         1 0YD       0.121000
     36 OXT         -7.6100     2.3810    -0.0530 o          1 0YD      -0.733500
@<TRIPOS>BOND
     1     1     3 1   
     2     1    14 1   
     3     1    23 1   
     4     1    24 1   
     5     2    19 1   
     6     3     5 1   
     7     3    25 1   
     8     3    26 1   
     9     4    14 1   
    10     5     6 2   
    11     5    16 1   
    12     6     7 1   
    13     6    27 1   
    14     7     8 1   
    15     7    15 2   
    16     8     9 ar  
    17     8    13 ar  
    18     9    10 ar  
    19     9    28 1   
    20    10    11 ar  
    21    10    29 1   
    22    11    12 ar  
    23    11    17 1   
    24    12    13 ar  
    25    12    30 1   
    26    13    31 1   
    27    14    36 1   
    28    15    16 1   
    29    17    18 ar  
    30    17    22 ar  
    31    18    19 ar  
    32    18    32 1   
    33    19    20 ar  
    34    20    21 ar  
    35    20    33 1   
    36    21    22 ar  
    37    21    34 1   
    38    22    35 1   
@<TRIPOS>SUBSTRUCTURE
     1 0YD         1 TEMP              0 ****  ****    0 ROOT
