@<TRIPOS>MOLECULE
0YE
   26    27     1     0     0
SMALL
bcc


@<TRIPOS>ATOM
      1 O2          -5.1450     0.2670     0.9690 o          1 0YE      -0.839800
      2 N3           0.7480    -1.4350    -0.4050 nc         1 0YE      -0.396300
      3 O5          -0.5910    -1.4710    -0.1700 os         1 0YE      -0.109100
      4 C11         -4.7610     0.2720    -0.2160 c          1 0YE       0.931600
      5 C12         -3.2580     0.0620    -0.4840 c3         1 0YE      -0.208400
      6 C13         -2.4210    -0.1960     0.7680 c3         1 0YE      -0.109700
      7 C14          0.1030     0.4370     0.6480 cd         1 0YE      -0.432600
      8 C16          1.1760    -0.3000     0.0790 cd         1 0YE       0.384800
      9 C21          2.5920     0.0710    -0.0010 ca         1 0YE      -0.114500
     10 C22          2.9980     1.3570     0.3510 ca         1 0YE      -0.103000
     11 C23          4.3350     1.7200     0.2740 ca         1 0YE      -0.140500
     12 C24          5.2820     0.8030    -0.1570 ca         1 0YE      -0.130000
     13 C25          4.8850    -0.4820    -0.5100 ca         1 0YE      -0.140500
     14 C26          3.5510    -0.8460    -0.4340 ca         1 0YE      -0.103000
     15 C27         -0.9790    -0.3550     0.4590 cc         1 0YE       0.335000
     16 H16         -3.1440    -0.7640    -1.1920 hc         1 0YE       0.029200
     17 H17         -2.8730     0.9470    -1.0020 hc         1 0YE       0.029200
     18 H18         -2.5230     0.6360     1.4650 hc         1 0YE       0.069700
     19 H19         -2.7850    -1.0860     1.2860 hc         1 0YE       0.069700
     20 H20          0.1280     1.3990     1.1310 ha         1 0YE       0.164000
     21 H21          2.2690     2.0870     0.6820 ha         1 0YE       0.143000
     22 H22          4.6340     2.7220     0.5520 ha         1 0YE       0.124000
     23 H23          6.3260     1.0850    -0.2160 ha         1 0YE       0.121000
     24 H24          5.6190    -1.2040    -0.8450 ha         1 0YE       0.124000
     25 H25          3.2540    -1.8500    -0.7080 ha         1 0YE       0.143000
     26 OXT         -5.4700     0.4380    -1.2290 o          1 0YE      -0.839800
@<TRIPOS>BOND
     1     1     4 1   
     2     2     3 1   
     3     2     8 2   
     4     3    15 1   
     5     4     5 1   
     6     4    26 1   
     7     5     6 1   
     8     5    16 1   
     9     5    17 1   
    10     6    15 1   
    11     6    18 1   
    12     6    19 1   
    13     7     8 1   
    14     7    15 2   
    15     7    20 1   
    16     8     9 1   
    17     9    10 ar  
    18     9    14 ar  
    19    10    11 ar  
    20    10    21 1   
    21    11    12 ar  
    22    11    22 1   
    23    12    13 ar  
    24    12    23 1   
    25    13    14 ar  
    26    13    24 1   
    27    14    25 1   
@<TRIPOS>SUBSTRUCTURE
     1 0YE         1 TEMP              0 ****  ****    0 ROOT
