@<TRIPOS>MOLECULE
0YE
   26    27     1     0     0
SMALL
No Charge or Current Charge


@<TRIPOS>ATOM
      1 O2          -5.0960     1.5190     0.3640 o          1 0YE      -0.734500
      2 N3           0.7990    -1.5450    -0.5970 nc         1 0YE      -0.396300
      3 O5          -0.6300    -1.5950    -0.3900 os         1 0YE      -0.064700
      4 C11         -4.7770     0.4310    -0.0900 c          1 0YE       0.721000
      5 C12         -3.3180     0.2300    -0.5320 c3         1 0YE      -0.208400
      6 C13         -2.4520    -0.2590     0.6580 c3         1 0YE      -0.109700
      7 C14          0.0960     0.2840     0.5330 cd         1 0YE      -0.284000
      8 C16          1.1850    -0.4090    -0.0330 cd         1 0YE       0.319500
      9 C21          2.6050     0.0170    -0.0280 ca         1 0YE      -0.114500
     10 C22          2.9770     1.2820     0.4820 ca         1 0YE      -0.085000
     11 C23          4.3230     1.6910     0.4790 ca         1 0YE      -0.122500
     12 C24          5.3160     0.8450    -0.0360 ca         1 0YE      -0.112000
     13 C25          4.9630    -0.4110    -0.5510 ca         1 0YE      -0.122500
     14 C26          3.6180    -0.8220    -0.5500 ca         1 0YE      -0.085000
     15 C27         -1.0080    -0.4680     0.2950 cc         1 0YE       0.225300
     16 H16         -3.2550    -0.5580    -1.2930 hc         1 0YE       0.029200
     17 H17         -2.8800     1.1850    -0.8490 hc         1 0YE       0.029200
     18 H18         -2.5170     0.4690     1.4760 hc         1 0YE       0.069700
     19 H19         -2.8650    -1.1980     1.0460 hc         1 0YE       0.069700
     20 H20          0.1170     1.2290     1.0580 ha         1 0YE       0.146000
     21 H21          2.2300     1.9620     0.8840 ha         1 0YE       0.125000
     22 H22          4.5940     2.6670     0.8760 ha         1 0YE       0.106000
     23 H23          6.3570     1.1630    -0.0380 ha         1 0YE       0.103000
     24 H24          5.7300    -1.0680    -0.9530 ha         1 0YE       0.106000
     25 H25          3.3720    -1.8010    -0.9560 ha         1 0YE       0.125000
     26 OXT         -5.5350    -0.5250    -0.1570 o          1 0YE      -0.734500
@<TRIPOS>BOND
     1     1     4 1   
     2     2     3 1   
     3     2     8 2   
     4     3    15 1   
     5     4     5 1   
     6     4    26 1   
     7     5     6 1   
     8     5    16 1   
     9     5    17 1   
    10     6    15 1   
    11     6    18 1   
    12     6    19 1   
    13     7     8 1   
    14     7    15 2   
    15     7    20 1   
    16     8     9 1   
    17     9    10 ar  
    18     9    14 ar  
    19    10    11 ar  
    20    10    21 1   
    21    11    12 ar  
    22    11    22 1   
    23    12    13 ar  
    24    12    23 1   
    25    13    14 ar  
    26    13    24 1   
    27    14    25 1   
@<TRIPOS>SUBSTRUCTURE
     1 0YE         1 TEMP              0 ****  ****    0 ROOT
