@<TRIPOS>MOLECULE
0YF
   30    31     1     0     0
SMALL
abcg2


@<TRIPOS>ATOM
      1 C1          -3.5610    -0.1650    -0.5320 c3         1 0YF      -0.204400
      2 C2          -5.0990    -0.1430    -0.4460 c          1 0YF       0.717000
      3 O2          -5.6170     0.0870     0.6640 o          1 0YF      -0.738500
      4 C14         -2.8280     0.0940     0.7810 c3         1 0YF      -0.025100
      5 C15         -0.6520     1.2150     0.1780 ca         1 0YF      -0.121000
      6 C16          0.7180     1.1960    -0.0320 ca         1 0YF      -0.099000
      7 C17          1.4590     0.0300     0.1720 cp         1 0YF      -0.079000
      8 C18         -1.3370     0.0760     0.5990 ca         1 0YF      -0.031300
      9 C19          2.9200     0.0070    -0.0430 cp         1 0YF      -0.004000
     10 C20          3.5470    -1.1210    -0.5780 ca         1 0YF      -0.107500
     11 C21          4.9200    -1.1470    -0.7740 ca         1 0YF      -0.115000
     12 C22          5.0850     1.0840     0.0910 ca         1 0YF      -0.115000
     13 C23          3.7120     1.1090     0.2880 ca         1 0YF      -0.107500
     14 C27          5.6960    -0.0440    -0.4400 ca         1 0YF      -0.125000
     15 C30          0.7750    -1.1110     0.5920 ca         1 0YF      -0.099000
     16 C31         -0.5950    -1.0860     0.7990 ca         1 0YF      -0.121000
     17 H1          -3.2520    -1.1330    -0.9410 hc         1 0YF       0.021700
     18 H2          -3.2490     0.5720    -1.2790 hc         1 0YF       0.021700
     19 H16         -3.1350     1.0620     1.1850 hc         1 0YF       0.052700
     20 H17         -3.1160    -0.6570     1.5190 hc         1 0YF       0.052700
     21 H18         -1.2010     2.1340     0.0070 ha         1 0YF       0.115000
     22 H19          1.2120     2.0970    -0.3750 ha         1 0YF       0.099500
     23 H20          2.9540    -1.9810    -0.8640 ha         1 0YF       0.115000
     24 H21          5.3830    -2.0290    -1.1960 ha         1 0YF       0.103500
     25 H22          5.6800     1.9460     0.3630 ha         1 0YF       0.103500
     26 H23          3.2550     1.9880     0.7240 ha         1 0YF       0.115000
     27 H24          6.7670    -0.0640    -0.5930 ha         1 0YF       0.102000
     28 H25          1.3230    -2.0260     0.7840 ha         1 0YF       0.099500
     29 H26         -1.0950    -1.9860     1.1390 ha         1 0YF       0.115000
     30 OXT         -5.7050    -0.3600    -1.5160 o          1 0YF      -0.738500
@<TRIPOS>BOND
     1     1     2 1   
     2     1     4 1   
     3     1    17 1   
     4     1    18 1   
     5     2     3 1   
     6     2    30 1   
     7     4     8 1   
     8     4    19 1   
     9     4    20 1   
    10     5     6 ar  
    11     5     8 ar  
    12     5    21 1   
    13     6     7 ar  
    14     6    22 1   
    15     7     9 1   
    16     7    15 ar  
    17     8    16 ar  
    18     9    10 ar  
    19     9    13 ar  
    20    10    11 ar  
    21    10    23 1   
    22    11    14 ar  
    23    11    24 1   
    24    12    13 ar  
    25    12    14 ar  
    26    12    25 1   
    27    13    26 1   
    28    14    27 1   
    29    15    16 ar  
    30    15    28 1   
    31    16    29 1   
@<TRIPOS>SUBSTRUCTURE
     1 0YF         1 TEMP              0 ****  ****    0 ROOT
