@<TRIPOS>MOLECULE
0YF
   30    31     1     0     0
SMALL
No Charge or Current Charge


@<TRIPOS>ATOM
      1 C1          -3.6360    -0.1460    -0.6110 c3         1 0YF      -0.204400
      2 C2          -5.1510    -0.1210    -0.3550 c          1 0YF       0.717000
      3 O2          -5.7250     0.9570    -0.3970 o          1 0YF      -0.738500
      4 C14         -2.8710     0.0660     0.7170 c3         1 0YF      -0.025100
      5 C15         -0.6650     1.2420     0.2500 ca         1 0YF      -0.121000
      6 C16          0.7290     1.2270     0.0700 ca         1 0YF      -0.099000
      7 C17          1.4680     0.0200     0.1560 cp         1 0YF      -0.079000
      8 C18         -1.3600     0.0500     0.5240 ca         1 0YF      -0.031300
      9 C19          2.9540     0.0040    -0.0370 cp         1 0YF      -0.004000
     10 C20          3.6020    -1.0960    -0.6560 ca         1 0YF      -0.107500
     11 C21          4.9960    -1.1110    -0.8370 ca         1 0YF      -0.115000
     12 C22          5.1550     1.0740     0.2130 ca         1 0YF      -0.115000
     13 C23          3.7610     1.0880     0.3930 ca         1 0YF      -0.107500
     14 C27          5.7730    -0.0260    -0.4030 ca         1 0YF      -0.125000
     15 C30          0.7500    -1.1720     0.4300 ca         1 0YF      -0.099000
     16 C31         -0.6430    -1.1570     0.6120 ca         1 0YF      -0.121000
     17 H1          -3.3240    -1.1300    -0.9830 hc         1 0YF       0.021700
     18 H2          -3.3410     0.6860    -1.2620 hc         1 0YF       0.021700
     19 H16         -3.1820     1.0180     1.1650 hc         1 0YF       0.052700
     20 H17         -3.1650    -0.7140     1.4310 hc         1 0YF       0.052700
     21 H18         -1.2060     2.1820     0.1720 ha         1 0YF       0.115000
     22 H19          1.2380     2.1610    -0.1540 ha         1 0YF       0.099500
     23 H20          3.0170    -1.9400    -1.0110 ha         1 0YF       0.115000
     24 H21          5.4720    -1.9630    -1.3170 ha         1 0YF       0.103500
     25 H22          5.7560     1.9150     0.5530 ha         1 0YF       0.103500
     26 H23          3.3040     1.9440     0.8840 ha         1 0YF       0.115000
     27 H24          6.8520    -0.0370    -0.5430 ha         1 0YF       0.102000
     28 H25          1.2790    -2.1180     0.5170 ha         1 0YF       0.099500
     29 H26         -1.1670    -2.0870     0.8220 ha         1 0YF       0.115000
     30 OXT         -5.7050    -1.1710    -0.0690 o          1 0YF      -0.738500
@<TRIPOS>BOND
     1     1     2 1   
     2     1     4 1   
     3     1    17 1   
     4     1    18 1   
     5     2     3 1   
     6     2    30 1   
     7     4     8 1   
     8     4    19 1   
     9     4    20 1   
    10     5     6 ar  
    11     5     8 ar  
    12     5    21 1   
    13     6     7 ar  
    14     6    22 1   
    15     7     9 1   
    16     7    15 ar  
    17     8    16 ar  
    18     9    10 ar  
    19     9    13 ar  
    20    10    11 ar  
    21    10    23 1   
    22    11    14 ar  
    23    11    24 1   
    24    12    13 ar  
    25    12    14 ar  
    26    12    25 1   
    27    13    26 1   
    28    14    27 1   
    29    15    16 ar  
    30    15    28 1   
    31    16    29 1   
@<TRIPOS>SUBSTRUCTURE
     1 0YF         1 TEMP              0 ****  ****    0 ROOT
