@<TRIPOS>MOLECULE
0YG
   28    28     1     0     0
SMALL
No Charge or Current Charge


@<TRIPOS>ATOM
      1 C           -5.1730    -0.3110     0.4550 c          1 0YG       0.713000
      2 O           -4.8680    -1.4950     0.5280 o          1 0YG      -0.727500
      3 C2          -1.6000     0.9140    -0.2650 c          1 0YG       0.577300
      4 O2          -1.6650     2.0870    -0.6220 o          1 0YG      -0.650100
      5 N3          -2.7410     0.1910     0.0130 ns         1 0YG      -0.446900
      6 CZ           5.0050    -0.5370     0.1630 ca         1 0YG       0.116100
      7 CA2         -0.2700     0.1550    -0.0800 ce         1 0YG       0.055800
      8 CA3         -4.1290     0.6940    -0.1070 c3         1 0YG      -0.060000
      9 CB2          0.9280     0.8080    -0.1500 cf         1 0YG      -0.249200
     10 CD1          3.3000     1.1630     0.5100 ca         1 0YG      -0.080500
     11 CD2          2.7060    -0.9560    -0.5180 ca         1 0YG      -0.080500
     12 CE1          4.6360     0.7380     0.6190 ca         1 0YG      -0.173000
     13 CE2          4.0430    -1.3800    -0.4100 ca         1 0YG      -0.173000
     14 CG2          2.3190     0.3160    -0.0430 ca         1 0YG      -0.044800
     15 O4          -6.2460     0.1310     0.8390 o          1 0YG      -0.727500
     16 HN2         -1.0540    -1.7910    -0.2510 hn         1 0YG       0.440000
     17 HN2A         0.5420    -1.7100     0.3830 hn         1 0YG       0.440000
     18 HN3         -2.6010    -0.7470     0.3720 hn         1 0YG       0.353500
     19 HOH          6.8240    -0.2400     0.6810 ho         1 0YG       0.457000
     20 HA3         -4.3560     0.8750    -1.1650 h1         1 0YG       0.036200
     21 HA3A        -4.2180     1.6390     0.4440 h1         1 0YG       0.036200
     22 HB2          0.8760     1.8860    -0.3190 ha         1 0YG       0.205000
     23 HD1          3.0240     2.1530     0.8680 ha         1 0YG       0.112500
     24 HD2          1.9850    -1.6110    -1.0000 ha         1 0YG       0.112500
     25 HE1          5.3760     1.4030     1.0580 ha         1 0YG       0.111500
     26 HE2          4.3310    -2.3600    -0.7790 ha         1 0YG       0.111500
     27 OH           6.2970    -0.9550     0.2620 oh         1 0YG      -0.542100
     28 N2          -0.3350    -1.2260     0.1980 nv         1 0YG      -0.924000
@<TRIPOS>BOND
     1     1     2 1   
     2     1     8 1   
     3     1    15 1   
     4     3     4 2   
     5     3     5 1   
     6     3     7 1   
     7     5     8 1   
     8     5    18 1   
     9     6    12 ar  
    10     6    13 ar  
    11     6    27 1   
    12     7     9 2   
    13     7    28 1   
    14     8    20 1   
    15     8    21 1   
    16     9    14 1   
    17     9    22 1   
    18    10    12 ar  
    19    10    14 ar  
    20    10    23 1   
    21    11    13 ar  
    22    11    14 ar  
    23    11    24 1   
    24    12    25 1   
    25    13    26 1   
    26    16    28 1   
    27    17    28 1   
    28    19    27 1   
@<TRIPOS>SUBSTRUCTURE
     1 0YG         1 TEMP              0 ****  ****    0 ROOT
