@<TRIPOS>MOLECULE
0YG
   28    28     1     0     0
SMALL
abcg2


@<TRIPOS>ATOM
      1 C           -4.9730    -0.2300     0.7010 c          1 0YG       0.713000
      2 O           -4.5030    -1.2480     1.2440 o          1 0YG      -0.727500
      3 C2          -1.5730     0.8030    -0.4590 c          1 0YG       0.577300
      4 O2          -1.6300     1.8920    -1.0230 o          1 0YG      -0.650100
      5 N3          -2.6440     0.1740     0.0300 ns         1 0YG      -0.446900
      6 CZ           4.9070    -0.5070     0.2300 ca         1 0YG       0.116100
      7 CA2         -0.2710     0.0780    -0.2570 ce         1 0YG       0.055800
      8 CA3         -3.9820     0.7000    -0.0290 c3         1 0YG      -0.060000
      9 CB2          0.8600     0.8050    -0.2710 cf         1 0YG      -0.249200
     10 CD1          3.1570     1.1040     0.5910 ca         1 0YG      -0.080500
     11 CD2          2.6990    -0.8790    -0.6530 ca         1 0YG      -0.080500
     12 CE1          4.4710     0.7030     0.7660 ca         1 0YG      -0.173000
     13 CE2          4.0100    -1.2920    -0.4910 ca         1 0YG      -0.173000
     14 CG2          2.2320     0.3210    -0.1040 ca         1 0YG      -0.044800
     15 O4          -6.1600     0.1390     0.6760 o          1 0YG      -0.727500
     16 HN2         -0.8980    -1.8300    -0.5920 hn         1 0YG       0.440000
     17 HN2A         0.4930    -1.7200     0.2960 hn         1 0YG       0.440000
     18 HN3         -2.5340    -0.6780     0.5630 hn         1 0YG       0.353500
     19 HOH          6.6930    -0.3330     0.8860 ho         1 0YG       0.457000
     20 HA3         -4.3060     0.8210    -1.0680 h1         1 0YG       0.036200
     21 HA3A        -4.0310     1.6950     0.4250 h1         1 0YG       0.036200
     22 HB2          0.7450     1.8780    -0.3620 ha         1 0YG       0.205000
     23 HD1          2.8410     2.0500     1.0140 ha         1 0YG       0.112500
     24 HD2          2.0400    -1.4970    -1.2510 ha         1 0YG       0.112500
     25 HE1          5.1570     1.3340     1.3200 ha         1 0YG       0.111500
     26 HE2          4.3440    -2.2230    -0.9330 ha         1 0YG       0.111500
     27 OH           6.1710    -0.9540     0.3660 oh         1 0YG      -0.542100
     28 N2          -0.3790    -1.2680     0.0680 nv         1 0YG      -0.924000
@<TRIPOS>BOND
     1     1     2 1   
     2     1     8 1   
     3     1    15 1   
     4     3     4 2   
     5     3     5 1   
     6     3     7 1   
     7     5     8 1   
     8     5    18 1   
     9     6    12 ar  
    10     6    13 ar  
    11     6    27 1   
    12     7     9 2   
    13     7    28 1   
    14     8    20 1   
    15     8    21 1   
    16     9    14 1   
    17     9    22 1   
    18    10    12 ar  
    19    10    14 ar  
    20    10    23 1   
    21    11    13 ar  
    22    11    14 ar  
    23    11    24 1   
    24    12    25 1   
    25    13    26 1   
    26    16    28 1   
    27    17    28 1   
    28    19    27 1   
@<TRIPOS>SUBSTRUCTURE
     1 0YG         1 TEMP              0 ****  ****    0 ROOT
