@<TRIPOS>MOLECULE
0YH
   64    67     1     0     0
SMALL
No Charge or Current Charge


@<TRIPOS>ATOM
      1 C1           6.6710     4.1420     0.0800 c3         1 0YH      -0.049800
      2 C2          -6.0390     3.6000    -0.2810 c3         1 0YH      -0.047800
      3 C3           3.1770    -5.1400    -1.4800 c3         1 0YH      -0.080433
      4 C4           3.1970    -5.2020     1.0520 c3         1 0YH      -0.080433
      5 C5           5.3630    -5.0840    -0.2290 c3         1 0YH      -0.080433
      6 C6          -9.2890    -1.6570     0.4050 c3         1 0YH       0.148900
      7 C7           5.5200     2.2680    -1.1920 ca         1 0YH      -0.105000
      8 C8           5.9100     1.9880     1.1920 ca         1 0YH      -0.105000
      9 C9           4.9160     0.9990    -1.2430 ca         1 0YH      -0.106000
     10 C10          5.3060     0.7200     1.1420 ca         1 0YH      -0.106000
     11 C11         -6.5540    -0.6790     0.2910 ca         1 0YH      -0.207000
     12 C12         -5.2510    -0.1630     0.2310 ca         1 0YH      -0.053000
     13 C13         -7.4370     1.5500     0.0040 ca         1 0YH      -0.158000
     14 C14         -2.4520     0.8430    -0.0060 cc         1 0YH      -0.223000
     15 C15          2.5370    -2.4050    -0.1430 cc         1 0YH      -0.224000
     16 C16          6.0210     2.7680     0.0250 ca         1 0YH      -0.070300
     17 C17         -6.1350     2.0900    -0.0610 ca         1 0YH      -0.006300
     18 C18          4.8060     0.2210    -0.0750 ca         1 0YH       0.004800
     19 C19         -7.6570     0.1800     0.1770 ca         1 0YH       0.149100
     20 C20         -4.9990     1.2220     0.0500 ca         1 0YH      -0.159500
     21 C21         -3.5840     1.6910     0.0240 cc         1 0YH       0.332500
     22 C22          3.7820    -3.0800    -0.1680 cc         1 0YH       0.280300
     23 C23         -1.3430     1.6270     0.0150 cd         1 0YH       0.009600
     24 C24          2.8010    -1.0700    -0.1080 cd         1 0YH       0.020600
     25 C25          0.5350    -0.0200    -0.0560 c          1 0YH       0.681100
     26 C26          3.8830    -4.6050    -0.2060 c3         1 0YH      -0.073300
     27 N27         -1.8310     2.9290     0.0670 na         1 0YH      -0.046200
     28 N28         -3.2240     2.9650     0.0790 nd         1 0YH      -0.514800
     29 N29          4.8240    -2.2610    -0.1500 nd         1 0YH      -0.506800
     30 N30         -0.0080     1.2500    -0.0070 ns         1 0YH      -0.416100
     31 N31          1.9140     0.0000    -0.0660 ns         1 0YH      -0.416100
     32 N32          4.1960    -1.0320    -0.1210 na         1 0YH       0.180000
     33 O33         -0.1290    -1.0440    -0.0860 o          1 0YH      -0.574100
     34 H1           5.9260     4.9180     0.2940 hc         1 0YH       0.046033
     35 H2           7.4400     4.1900     0.8610 hc         1 0YH       0.046033
     36 H3           7.1540     4.3950    -0.8720 hc         1 0YH       0.046033
     37 H4          -5.6060     4.1030     0.5910 hc         1 0YH       0.047367
     38 H5          -5.4310     3.8370    -1.1620 hc         1 0YH       0.047367
     39 H6          -7.0220     4.0540    -0.4510 hc         1 0YH       0.047367
     40 H7           2.1110    -4.8820    -1.4840 hc         1 0YH       0.037256
     41 H8           3.6300    -4.7140    -2.3830 hc         1 0YH       0.037256
     42 H9           3.2550    -6.2330    -1.5450 hc         1 0YH       0.037256
     43 H10          3.2760    -6.2970     1.0610 hc         1 0YH       0.037256
     44 H11          3.6650    -4.8210     1.9670 hc         1 0YH       0.037256
     45 H12          2.1310    -4.9450     1.0860 hc         1 0YH       0.037256
     46 H13          5.8880    -4.6990    -1.1120 hc         1 0YH       0.037256
     47 H14          5.9020    -4.7440     0.6630 hc         1 0YH       0.037256
     48 H15          5.4220    -6.1790    -0.2570 hc         1 0YH       0.037256
     49 H16        -10.3780    -1.7920     0.4170 h1         1 0YH       0.040033
     50 H17         -8.8810    -2.2600    -0.4170 h1         1 0YH       0.040033
     51 H18         -8.8880    -2.0360     1.3530 h1         1 0YH       0.040033
     52 H19          5.5980     2.8620    -2.1000 ha         1 0YH       0.118500
     53 H20          6.2910     2.3650     2.1390 ha         1 0YH       0.118500
     54 H21          4.5330     0.6210    -2.1880 ha         1 0YH       0.133000
     55 H22          5.2240     0.1240     2.0490 ha         1 0YH       0.133000
     56 H23         -6.6830    -1.7480     0.4320 ha         1 0YH       0.117000
     57 H24         -4.4380    -0.8720     0.3440 ha         1 0YH       0.116000
     58 H25         -8.3020     2.2030    -0.0850 ha         1 0YH       0.125000
     59 H26         -2.4730    -0.2360    -0.0540 ha         1 0YH       0.171000
     60 H27          1.5690    -2.8900    -0.1480 ha         1 0YH       0.169000
     61 H28         -1.2750     3.7810     0.0990 hn         1 0YH       0.365000
     62 H29          0.6850     1.9860     0.0140 hn         1 0YH       0.317500
     63 H30          2.3120     0.9290    -0.0370 hn         1 0YH       0.326500
     64 O34         -8.9610    -0.2670     0.2300 os         1 0YH      -0.342100
@<TRIPOS>BOND
     1     1    16 1   
     2     1    34 1   
     3     1    35 1   
     4     1    36 1   
     5     2    17 1   
     6     2    37 1   
     7     2    38 1   
     8     2    39 1   
     9     3    26 1   
    10     3    40 1   
    11     3    41 1   
    12     3    42 1   
    13     4    26 1   
    14     4    43 1   
    15     4    44 1   
    16     4    45 1   
    17     5    26 1   
    18     5    46 1   
    19     5    47 1   
    20     5    48 1   
    21     6    49 1   
    22     6    50 1   
    23     6    51 1   
    24     6    64 1   
    25     7     9 ar  
    26     7    16 ar  
    27     7    52 1   
    28     8    10 ar  
    29     8    16 ar  
    30     8    53 1   
    31     9    18 ar  
    32     9    54 1   
    33    10    18 ar  
    34    10    55 1   
    35    11    12 ar  
    36    11    19 ar  
    37    11    56 1   
    38    12    20 ar  
    39    12    57 1   
    40    13    17 ar  
    41    13    19 ar  
    42    13    58 1   
    43    14    21 1   
    44    14    23 2   
    45    14    59 1   
    46    15    22 1   
    47    15    24 2   
    48    15    60 1   
    49    17    20 ar  
    50    18    32 1   
    51    19    64 1   
    52    20    21 1   
    53    21    28 2   
    54    22    26 1   
    55    22    29 2   
    56    23    27 1   
    57    23    30 1   
    58    24    31 1   
    59    24    32 1   
    60    25    30 1   
    61    25    31 1   
    62    25    33 2   
    63    27    28 1   
    64    27    61 1   
    65    29    32 1   
    66    30    62 1   
    67    31    63 1   
@<TRIPOS>SUBSTRUCTURE
     1 0YH         1 TEMP              0 ****  ****    0 ROOT
