@<TRIPOS>MOLECULE
0YH
   64    67     1     0     0
SMALL
abcg2


@<TRIPOS>ATOM
      1 C1           6.9420     3.9700    -0.0230 c3         1 0YH      -0.049800
      2 C2          -5.7500     3.2010    -1.1290 c3         1 0YH      -0.047800
      3 C3           3.4610    -4.9460    -1.6630 c3         1 0YH      -0.080433
      4 C4           3.2820    -5.2500     0.8120 c3         1 0YH      -0.080433
      5 C5           5.4920    -4.7180    -0.2240 c3         1 0YH      -0.080433
      6 C6          -9.5300    -1.3000     0.5260 c3         1 0YH       0.148900
      7 C7           5.0720     2.5270    -0.8950 ca         1 0YH      -0.105000
      8 C8           6.5320     1.6120     0.7600 ca         1 0YH      -0.105000
      9 C9           4.3440     1.3470    -0.9170 ca         1 0YH      -0.106000
     10 C10          5.8040     0.4330     0.7640 ca         1 0YH      -0.106000
     11 C11         -6.8270    -0.5490     0.7050 ca         1 0YH      -0.207000
     12 C12         -5.5150    -0.1010     0.7510 ca         1 0YH      -0.053000
     13 C13         -7.3930     1.4450    -0.5100 ca         1 0YH      -0.158000
     14 C14         -2.5960     0.5990     0.2150 cc         1 0YH      -0.223000
     15 C15          2.3940    -2.4270     0.0090 cc         1 0YH      -0.224000
     16 C16          6.1750     2.6820    -0.0590 ca         1 0YH      -0.070300
     17 C17         -6.0820     1.8960    -0.4640 ca         1 0YH      -0.006300
     18 C18          4.7040     0.3020    -0.0730 ca         1 0YH       0.004800
     19 C19         -7.7820     0.2360     0.0680 ca         1 0YH       0.149100
     20 C20         -5.1140     1.1060     0.1860 ca         1 0YH      -0.159500
     21 C21         -3.6980     1.4820     0.2860 cc         1 0YH       0.332500
     22 C22          3.6740    -3.0030    -0.1550 cc         1 0YH       0.280300
     23 C23         -1.4980     1.4130     0.3910 cd         1 0YH       0.009600
     24 C24          2.6310    -1.0740     0.0670 cd         1 0YH       0.020600
     25 C25          0.4510    -0.0100     0.1370 c          1 0YH       0.681100
     26 C26          3.9860    -4.4690    -0.3020 c3         1 0YH      -0.073300
     27 N27         -1.9720     2.6640     0.5470 na         1 0YH      -0.046200
     28 N28         -3.3040     2.7260     0.4910 nd         1 0YH      -0.514800
     29 N29          4.6100    -2.0810    -0.1950 nd         1 0YH      -0.506800
     30 N30         -0.1380     1.1870     0.4380 ns         1 0YH      -0.416100
     31 N31          1.8120     0.0170     0.2860 ns         1 0YH      -0.416100
     32 N32          3.9700    -0.9040    -0.0780 na         1 0YH       0.180000
     33 O33         -0.1670    -0.9910    -0.2230 o          1 0YH      -0.574100
     34 H1           6.5040     4.6630     0.6990 hc         1 0YH       0.046033
     35 H2           7.9790     3.8110     0.2690 hc         1 0YH       0.046033
     36 H3           6.9350     4.4680    -0.9930 hc         1 0YH       0.046033
     37 H4          -5.5530     3.9850    -0.3970 hc         1 0YH       0.047367
     38 H5          -4.8590     3.1230    -1.7520 hc         1 0YH       0.047367
     39 H6          -6.5760     3.5300    -1.7580 hc         1 0YH       0.047367
     40 H7           2.3850    -4.7840    -1.7540 hc         1 0YH       0.037256
     41 H8           3.9510    -4.4170    -2.4820 hc         1 0YH       0.037256
     42 H9           3.6490    -6.0140    -1.7900 hc         1 0YH       0.037256
     43 H10          3.4900    -6.3180     0.7150 hc         1 0YH       0.037256
     44 H11          3.6220    -4.9290     1.7980 hc         1 0YH       0.037256
     45 H12          2.1990    -5.1240     0.7730 hc         1 0YH       0.037256
     46 H13          6.0300    -4.1850    -1.0070 hc         1 0YH       0.037256
     47 H14          5.9030    -4.4070     0.7370 hc         1 0YH       0.037256
     48 H15          5.6960    -5.7840    -0.3450 hc         1 0YH       0.037256
     49 H16        -10.5950    -1.3670     0.3190 h1         1 0YH       0.040033
     50 H17         -9.0300    -2.1670     0.0860 h1         1 0YH       0.040033
     51 H18         -9.3820    -1.3210     1.6090 h1         1 0YH       0.040033
     52 H19          4.7830     3.3340    -1.5580 ha         1 0YH       0.118500
     53 H20          7.3910     1.7010     1.4130 ha         1 0YH       0.118500
     54 H21          3.5140     1.2400    -1.6030 ha         1 0YH       0.133000
     55 H22          6.0900    -0.3830     1.4140 ha         1 0YH       0.133000
     56 H23         -7.0770    -1.4930     1.1680 ha         1 0YH       0.117000
     57 H24         -4.7820    -0.7150     1.2610 ha         1 0YH       0.116000
     58 H25         -8.1410     2.0410    -1.0190 ha         1 0YH       0.125000
     59 H26         -2.6140    -0.4620     0.0450 ha         1 0YH       0.171000
     60 H27          1.4490    -2.9320     0.0920 ha         1 0YH       0.169000
     61 H28         -1.4390     3.5060     0.7000 hn         1 0YH       0.365000
     62 H29          0.4410     1.9730     0.6910 hn         1 0YH       0.317500
     63 H30          2.2520     0.8520     0.6460 hn         1 0YH       0.326500
     64 O34         -9.0850    -0.0850    -0.0440 os         1 0YH      -0.342100
@<TRIPOS>BOND
     1     1    16 1   
     2     1    34 1   
     3     1    35 1   
     4     1    36 1   
     5     2    17 1   
     6     2    37 1   
     7     2    38 1   
     8     2    39 1   
     9     3    26 1   
    10     3    40 1   
    11     3    41 1   
    12     3    42 1   
    13     4    26 1   
    14     4    43 1   
    15     4    44 1   
    16     4    45 1   
    17     5    26 1   
    18     5    46 1   
    19     5    47 1   
    20     5    48 1   
    21     6    49 1   
    22     6    50 1   
    23     6    51 1   
    24     6    64 1   
    25     7     9 ar  
    26     7    16 ar  
    27     7    52 1   
    28     8    10 ar  
    29     8    16 ar  
    30     8    53 1   
    31     9    18 ar  
    32     9    54 1   
    33    10    18 ar  
    34    10    55 1   
    35    11    12 ar  
    36    11    19 ar  
    37    11    56 1   
    38    12    20 ar  
    39    12    57 1   
    40    13    17 ar  
    41    13    19 ar  
    42    13    58 1   
    43    14    21 1   
    44    14    23 2   
    45    14    59 1   
    46    15    22 1   
    47    15    24 2   
    48    15    60 1   
    49    17    20 ar  
    50    18    32 1   
    51    19    64 1   
    52    20    21 1   
    53    21    28 2   
    54    22    26 1   
    55    22    29 2   
    56    23    27 1   
    57    23    30 1   
    58    24    31 1   
    59    24    32 1   
    60    25    30 1   
    61    25    31 1   
    62    25    33 2   
    63    27    28 1   
    64    27    61 1   
    65    29    32 1   
    66    30    62 1   
    67    31    63 1   
@<TRIPOS>SUBSTRUCTURE
     1 0YH         1 TEMP              0 ****  ****    0 ROOT
