@<TRIPOS>MOLECULE
0YI
   29    30     1     0     0
SMALL
No Charge or Current Charge


@<TRIPOS>ATOM
      1 C3           5.1360    35.7480    29.9590 ca         1 0YI       0.625900
      2 C5           6.7780    34.2170    30.4260 ca         1 0YI       0.374900
      3 C11          2.7290    35.3530    30.7040 c3         1 0YI       0.280100
      4 C12          2.2950    34.4340    29.5590 ca         1 0YI      -0.086300
      5 C13          2.3440    33.0220    29.6620 ca         1 0YI       0.123000
      6 C14          1.9380    32.2200    28.5810 ca         1 0YI      -0.101000
      7 C15          1.4760    32.8090    27.3920 ca         1 0YI      -0.104000
      8 C16          1.4170    34.2060    27.2840 ca         1 0YI      -0.106000
      9 N9           6.2430    37.9980    27.1500 nt         1 0YI      -0.578000
     10 C17          1.8220    35.0130    28.3610 ca         1 0YI      -0.093000
     11 C2           5.9540    36.3230    28.9280 ca         1 0YI       0.151500
     12 C6           7.6010    34.7680    29.4090 ca         1 0YI       0.204900
     13 C7           5.4350    37.5050    28.1190 c          1 0YI       0.530600
     14 N1           7.2080    35.8240    28.6470 nb         1 0YI      -0.611000
     15 N10          3.8650    36.1960    30.2900 nu         1 0YI      -0.915100
     16 N4           5.5400    34.7030    30.7110 nb         1 0YI      -0.732000
     17 O8           4.3440    38.0310    28.2950 o          1 0YI      -0.648100
     18 Cl1          2.8990    32.2080    31.1260 cl         1 0YI      -0.213000
     19 H1           7.1210    33.3710    31.0210 h4         1 0YI       0.028100
     20 H2           1.8760    35.9890    30.9760 h1         1 0YI       0.074200
     21 H3           2.9880    34.7810    31.6050 h1         1 0YI       0.074200
     22 H4           1.9790    31.1370    28.6670 ha         1 0YI       0.128000
     23 H5           1.1620    32.1830    26.5590 ha         1 0YI       0.118000
     24 H6           1.0570    34.6660    26.3660 ha         1 0YI       0.117000
     25 H7           5.9380    38.7810    26.5920 hn         1 0YI       0.329500
     26 H8           7.1470    37.5710    26.9990 hn         1 0YI       0.329500
     27 H9           1.7680    36.0960    28.2620 ha         1 0YI       0.120000
     28 H10          8.5880    34.3550    29.2070 h4         1 0YI       0.033100
     29 H11          3.6220    37.0190    29.7250 hn         1 0YI       0.542000
@<TRIPOS>BOND
     1     1    11 ar  
     2     1    15 1   
     3     1    16 ar  
     4     2    12 ar  
     5     2    16 ar  
     6     2    19 1   
     7     3     4 1   
     8     3    15 1   
     9     3    20 1   
    10     3    21 1   
    11     4     5 ar  
    12     4    10 ar  
    13     5     6 ar  
    14     5    18 1   
    15     6     7 ar  
    16     6    22 1   
    17     7     8 ar  
    18     7    23 1   
    19     8    10 ar  
    20     8    24 1   
    21     9    13 1   
    22     9    25 1   
    23     9    26 1   
    24    10    27 1   
    25    11    13 1   
    26    11    14 ar  
    27    12    14 ar  
    28    12    28 1   
    29    13    17 2   
    30    15    29 1   
@<TRIPOS>SUBSTRUCTURE
     1 0YI         1 TEMP              0 ****  ****    0 ROOT
