@<TRIPOS>MOLECULE
0YI
   29    30     1     0     0
SMALL
bcc


@<TRIPOS>ATOM
      1 C3           5.1080    35.7740    29.5450 ca         1 0YI       0.625900
      2 C5           6.7750    34.2170    29.5590 ca         1 0YI       0.374900
      3 C11          2.9330    35.1690    30.4790 c3         1 0YI       0.280100
      4 C12          2.3260    34.1680    29.5200 ca         1 0YI      -0.086300
      5 C13          1.5480    33.1120    29.9890 ca         1 0YI       0.031400
      6 C14          0.9720    32.1830    29.1370 ca         1 0YI      -0.119000
      7 C15          1.1700    32.3000    27.7700 ca         1 0YI      -0.122000
      8 C16          1.9340    33.3460    27.2740 ca         1 0YI      -0.124000
      9 N9           6.5280    38.7680    27.8750 nt         1 0YI      -0.645000
     10 C17          2.5010    34.2660    28.1440 ca         1 0YI      -0.111000
     11 C2           5.9960    36.6770    28.8950 ca         1 0YI       0.151500
     12 C6           7.6470    35.1000    28.9370 ca         1 0YI       0.204900
     13 C7           5.5830    38.0540    28.4910 c          1 0YI       0.597600
     14 N1           7.2320    36.3130    28.6140 nb         1 0YI      -0.611000
     15 N10          3.8460    36.0950    29.8720 nu         1 0YI      -0.859900
     16 N4           5.5320    34.5440    29.8520 nb         1 0YI      -0.732000
     17 O8           4.4510    38.4810    28.7110 o          1 0YI      -0.648100
     18 CL1          1.2740    32.9420    31.6980 cl         1 0YI      -0.121400
     19 H1           7.0960    33.2160    29.8220 h4         1 0YI       0.028100
     20 H2           2.1360    35.7550    30.9410 h1         1 0YI       0.074200
     21 H3           3.4340    34.6370    31.2900 h1         1 0YI       0.074200
     22 H4           0.3750    31.3750    29.5390 ha         1 0YI       0.146000
     23 H5           0.7240    31.5770    27.1000 ha         1 0YI       0.136000
     24 H6           2.0910    33.4490    26.2080 ha         1 0YI       0.135000
     25 H7           6.3370    39.7080    27.5700 hn         1 0YI       0.329500
     26 H8           7.4430    38.3800    27.7170 hn         1 0YI       0.329500
     27 H9           3.0870    35.0820    27.7410 ha         1 0YI       0.138000
     28 H10          8.6650    34.8240    28.6980 h4         1 0YI       0.033100
     29 H11          3.5280    37.0140    29.5960 hn         1 0YI       0.486800
@<TRIPOS>BOND
     1     1    11 ar  
     2     1    15 1   
     3     1    16 ar  
     4     2    12 ar  
     5     2    16 ar  
     6     2    19 1   
     7     3     4 1   
     8     3    15 1   
     9     3    20 1   
    10     3    21 1   
    11     4     5 ar  
    12     4    10 ar  
    13     5     6 ar  
    14     5    18 1   
    15     6     7 ar  
    16     6    22 1   
    17     7     8 ar  
    18     7    23 1   
    19     8    10 ar  
    20     8    24 1   
    21     9    13 1   
    22     9    25 1   
    23     9    26 1   
    24    10    27 1   
    25    11    13 1   
    26    11    14 ar  
    27    12    14 ar  
    28    12    28 1   
    29    13    17 2   
    30    15    29 1   
@<TRIPOS>SUBSTRUCTURE
     1 0YI         1 TEMP              0 ****  ****    0 ROOT
