@<TRIPOS>MOLECULE
0YJ
   67    70     1     0     0
SMALL
No Charge or Current Charge


@<TRIPOS>ATOM
      1 C1          -1.1510     3.7500     1.4830 c3         1 0YJ      -0.049800
      2 C2          -3.6390     4.2620    -1.4230 c3         1 0YJ      -0.110100
      3 C3          -2.9620     2.5970    -3.2490 c3         1 0YJ      -0.110100
      4 C4           5.8420    -2.1930    -2.8520 c3         1 0YJ      -0.080433
      5 C5           6.8280    -1.5200    -0.6180 c3         1 0YJ      -0.080433
      6 C6           6.4680     0.2080    -2.4170 c3         1 0YJ      -0.080433
      7 C7          -3.3700    -3.2810     3.7060 ca         1 0YJ      -0.122000
      8 C8          -4.3380    -2.3300     3.3340 ca         1 0YJ      -0.065000
      9 C9          -2.1010    -3.2870     3.0820 ca         1 0YJ      -0.134000
     10 C10          0.0630     2.6610    -0.4620 ca         1 0YJ      -0.109000
     11 C11          0.6370     1.9700     1.7950 ca         1 0YJ      -0.109000
     12 C12          0.9900     1.7420    -0.9830 ca         1 0YJ      -0.095000
     13 C13          1.5740     1.0590     1.2770 ca         1 0YJ      -0.095000
     14 C14         -4.7690    -0.3500     1.7710 cc         1 0YJ      -0.166200
     15 C15          3.7320    -1.8790    -0.5950 cc         1 0YJ      -0.196000
     16 C16         -0.1270     2.7720     0.9270 ca         1 0YJ      -0.065300
     17 C17          1.7390     0.9220    -0.1170 ca         1 0YJ       0.003800
     18 C18         -3.9950    -1.4090     2.3380 ca         1 0YJ      -0.098800
     19 C19         -1.7740    -2.3530     2.0710 ca         1 0YJ      -0.034000
     20 C20         -3.9820     0.2630     0.8020 cd         1 0YJ      -0.143300
     21 C21          4.4780    -0.8500    -1.2180 cc         1 0YJ       0.265300
     22 C22          2.5370    -1.3490    -0.2300 cd         1 0YJ      -0.010400
     23 C23         -2.7710    -1.4090     1.7220 ca         1 0YJ      -0.048200
     24 C24         -3.8260     2.8440    -1.9980 c3         1 0YJ       0.109700
     25 C25         -4.4730     1.3840    -0.0550 c          1 0YJ       0.631300
     26 C26          0.1810    -1.7740     0.4780 c          1 0YJ       0.668100
     27 C27          5.8850    -1.0810    -1.7700 c3         1 0YJ      -0.071300
     28 N28         -2.7180    -0.3890     0.7850 na         1 0YJ      -0.207700
     29 N29          3.8520     0.3160    -1.2300 nd         1 0YJ      -0.494800
     30 N30         -0.4530    -2.4180     1.5320 ns         1 0YJ      -0.156000
     31 N31          1.5340    -2.0460     0.4380 ns         1 0YJ      -0.422100
     32 N32         -3.5550     1.8220    -0.9860 ns         1 0YJ      -0.504900
     33 N33          2.6420    -0.0070    -0.6430 na         1 0YJ       0.213000
     34 O34         -5.5940     1.8650     0.0380 o          1 0YJ      -0.587100
     35 O35         -0.3680    -1.0430    -0.3340 o          1 0YJ      -0.634100
     36 H1          -0.9860     3.9470     2.5480 hc         1 0YJ       0.046033
     37 H2          -1.1040     4.7120     0.9590 hc         1 0YJ       0.046033
     38 H3          -2.1680     3.3550     1.3700 hc         1 0YJ       0.046033
     39 H4          -3.9050     5.0170    -2.1720 hc         1 0YJ       0.042033
     40 H5          -4.2800     4.4140    -0.5470 hc         1 0YJ       0.042033
     41 H6          -2.5990     4.4320    -1.1230 hc         1 0YJ       0.042033
     42 H7          -1.8940     2.6730    -3.0140 hc         1 0YJ       0.042033
     43 H8          -3.1540     1.5970    -3.6570 hc         1 0YJ       0.042033
     44 H9          -3.1950     3.3320    -4.0290 hc         1 0YJ       0.042033
     45 H10          5.4970    -3.1460    -2.4330 hc         1 0YJ       0.037256
     46 H11          5.1620    -1.9160    -3.6660 hc         1 0YJ       0.037256
     47 H12          6.8370    -2.3600    -3.2840 hc         1 0YJ       0.037256
     48 H13          7.8520    -1.6710    -0.9830 hc         1 0YJ       0.037256
     49 H14          6.8590    -0.7570     0.1700 hc         1 0YJ       0.037256
     50 H15          6.4930    -2.4600    -0.1640 hc         1 0YJ       0.037256
     51 H16          5.8380     0.5520    -3.2470 hc         1 0YJ       0.037256
     52 H17          6.5390     1.0210    -1.6840 hc         1 0YJ       0.037256
     53 H18          7.4750     0.0280    -2.8150 hc         1 0YJ       0.037256
     54 H19         -3.5990    -4.0110     4.4790 ha         1 0YJ       0.115000
     55 H20         -5.3180    -2.3110     3.8050 ha         1 0YJ       0.121000
     56 H21         -1.3660    -4.0270     3.3920 ha         1 0YJ       0.108000
     57 H22         -0.5090     3.2870    -1.1410 ha         1 0YJ       0.116000
     58 H23          0.5070     2.0510     2.8720 ha         1 0YJ       0.116000
     59 H24          1.1200     1.6560    -2.0590 ha         1 0YJ       0.133000
     60 H25          2.1600     0.4470     1.9600 ha         1 0YJ       0.133000
     61 H26         -5.7950    -0.0810     2.0160 ha         1 0YJ       0.220000
     62 H27          4.0650    -2.9010    -0.4530 ha         1 0YJ       0.152000
     63 H28         -4.8770     2.7460    -2.3040 h1         1 0YJ       0.080700
     64 H29         -1.9280    -0.2160     0.1640 hn         1 0YJ       0.376000
     65 H30          0.1590    -3.0180     2.0680 hn         1 0YJ       0.152000
     66 H31          1.8050    -2.8530     0.9860 hn         1 0YJ       0.331500
     67 H32         -2.6520     1.3700    -0.9890 hn         1 0YJ       0.308500
@<TRIPOS>BOND
     1     1    16 1   
     2     1    36 1   
     3     1    37 1   
     4     1    38 1   
     5     2    24 1   
     6     2    39 1   
     7     2    40 1   
     8     2    41 1   
     9     3    24 1   
    10     3    42 1   
    11     3    43 1   
    12     3    44 1   
    13     4    27 1   
    14     4    45 1   
    15     4    46 1   
    16     4    47 1   
    17     5    27 1   
    18     5    48 1   
    19     5    49 1   
    20     5    50 1   
    21     6    27 1   
    22     6    51 1   
    23     6    52 1   
    24     6    53 1   
    25     7     8 ar  
    26     7     9 ar  
    27     7    54 1   
    28     8    18 ar  
    29     8    55 1   
    30     9    19 ar  
    31     9    56 1   
    32    10    12 ar  
    33    10    16 ar  
    34    10    57 1   
    35    11    13 ar  
    36    11    16 ar  
    37    11    58 1   
    38    12    17 ar  
    39    12    59 1   
    40    13    17 ar  
    41    13    60 1   
    42    14    18 1   
    43    14    20 2   
    44    14    61 1   
    45    15    21 1   
    46    15    22 2   
    47    15    62 1   
    48    17    33 1   
    49    18    23 ar  
    50    19    23 ar  
    51    19    30 1   
    52    20    25 1   
    53    20    28 1   
    54    21    27 1   
    55    21    29 2   
    56    22    31 1   
    57    22    33 1   
    58    23    28 1   
    59    24    32 1   
    60    24    63 1   
    61    25    32 1   
    62    25    34 2   
    63    26    30 1   
    64    26    31 1   
    65    26    35 2   
    66    28    64 1   
    67    29    33 1   
    68    30    65 1   
    69    31    66 1   
    70    32    67 1   
@<TRIPOS>SUBSTRUCTURE
     1 0YJ         1 TEMP              0 ****  ****    0 ROOT
