@<TRIPOS>MOLECULE
0YJ
   67    70     1     0     0
SMALL
bcc


@<TRIPOS>ATOM
      1 C1           0.2400     5.0480     2.0350 c3         1 0YJ      -0.049800
      2 C2          -4.1220     3.6420    -1.5810 c3         1 0YJ      -0.110100
      3 C3          -1.9390     2.8590    -2.5730 c3         1 0YJ      -0.110100
      4 C4           4.5520    -2.1090    -3.1560 c3         1 0YJ      -0.080433
      5 C5           6.2260    -2.0130    -1.2970 c3         1 0YJ      -0.080433
      6 C6           5.7270     0.0320    -2.6380 c3         1 0YJ      -0.080433
      7 C7          -3.6920    -3.7900     3.1410 ca         1 0YJ      -0.140000
      8 C8          -4.6570    -3.1900     2.3620 ca         1 0YJ      -0.083000
      9 C9          -2.3390    -3.4460     3.0180 ca         1 0YJ      -0.152000
     10 C10          0.1070     2.8000     0.9100 ca         1 0YJ      -0.127000
     11 C11          2.2530     3.6010     1.5880 ca         1 0YJ      -0.127000
     12 C12          0.6860     1.6360     0.4290 ca         1 0YJ      -0.113000
     13 C13          2.8430     2.4340     1.1290 ca         1 0YJ      -0.113000
     14 C14         -4.9530    -1.4130     0.4950 cc         1 0YJ      -0.116200
     15 C15          3.2700    -1.8080    -0.2860 cc         1 0YJ      -0.279300
     16 C16          0.8770     3.8010     1.4980 ca         1 0YJ      -0.065300
     17 C17          2.0550     1.4470     0.5510 ca         1 0YJ       0.003800
     18 C18         -4.2480    -2.2270     1.4320 ca         1 0YJ      -0.098800
     19 C19         -1.9040    -2.4830     2.1210 ca         1 0YJ       0.058600
     20 C20         -4.0270    -0.6230    -0.1220 cd         1 0YJ      -0.143300
     21 C21          4.0290    -0.9050    -1.0590 cc         1 0YJ       0.330600
     22 C22          2.4050    -1.0200     0.4260 cd         1 0YJ       0.040300
     23 C23         -2.8840    -1.8770     1.3220 ca         1 0YJ      -0.048200
     24 C24         -3.3560     2.4660    -2.1790 c3         1 0YJ       0.109700
     25 C25         -4.2640     0.4090    -1.1520 c          1 0YJ       0.698300
     26 C26          0.2020    -1.7240     1.0800 c          1 0YJ       0.802100
     27 C27          5.1280    -1.2370    -2.0330 c3         1 0YJ      -0.071300
     28 N28         -2.7780    -0.8780     0.3960 na         1 0YJ      -0.157400
     29 N29          3.6500     0.3370    -0.8240 nd         1 0YJ      -0.494800
     30 N30         -0.5540    -2.1030     2.1430 ns         1 0YJ      -0.482100
     31 N31          1.4710    -1.3480     1.4040 ns         1 0YJ      -0.489100
     32 N32         -3.3010     1.3460    -1.2500 ns         1 0YJ      -0.571900
     33 N33          2.6610     0.2660     0.0680 na         1 0YJ       0.162300
     34 O34         -5.2640     0.3790    -1.8540 o          1 0YJ      -0.587100
     35 O35         -0.2070    -1.6950    -0.0750 o          1 0YJ      -0.634100
     36 H1          -0.0700     4.9090     3.0720 hc         1 0YJ       0.046033
     37 H2           0.9290     5.8910     2.0120 hc         1 0YJ       0.046033
     38 H3          -0.6490     5.3200     1.4660 hc         1 0YJ       0.046033
     39 H4          -4.1740     4.4670    -2.2930 hc         1 0YJ       0.042033
     40 H5          -5.1410     3.3580    -1.3200 hc         1 0YJ       0.042033
     41 H6          -3.6270     4.0080    -0.6790 hc         1 0YJ       0.042033
     42 H7          -1.3810     3.2480    -1.7170 hc         1 0YJ       0.042033
     43 H8          -1.3890     2.0120    -2.9810 hc         1 0YJ       0.042033
     44 H9          -1.9620     3.6450    -3.3260 hc         1 0YJ       0.042033
     45 H10          4.1410    -3.0440    -2.7720 hc         1 0YJ       0.037256
     46 H11          3.7560    -1.5880    -3.6920 hc         1 0YJ       0.037256
     47 H12          5.3310    -2.3610    -3.8780 hc         1 0YJ       0.037256
     48 H13          7.0400    -2.2640    -1.9810 hc         1 0YJ       0.037256
     49 H14          6.6460    -1.4210    -0.4820 hc         1 0YJ       0.037256
     50 H15          5.8480    -2.9450    -0.8740 hc         1 0YJ       0.037256
     51 H16          4.9790     0.6210    -3.1700 hc         1 0YJ       0.037256
     52 H17          6.1750     0.6710    -1.8760 hc         1 0YJ       0.037256
     53 H18          6.5090    -0.2360    -3.3500 hc         1 0YJ       0.037256
     54 H19         -3.9720    -4.5410     3.8680 ha         1 0YJ       0.133000
     55 H20         -5.7020    -3.4500     2.4670 ha         1 0YJ       0.139000
     56 H21         -1.6120    -3.9310     3.6590 ha         1 0YJ       0.126000
     57 H22         -0.9640     2.9410     0.8160 ha         1 0YJ       0.134000
     58 H23          2.8760     4.3670     2.0320 ha         1 0YJ       0.134000
     59 H24          0.0840     0.8870    -0.0680 ha         1 0YJ       0.151000
     60 H25          3.9120     2.2900     1.2180 ha         1 0YJ       0.151000
     61 H26         -6.0180    -1.3920     0.3290 ha         1 0YJ       0.170000
     62 H27          3.3450    -2.8820    -0.2400 ha         1 0YJ       0.170000
     63 H28         -3.8810     2.1140    -3.0670 h1         1 0YJ       0.080700
     64 H29         -1.9130    -0.7600    -0.1190 hn         1 0YJ       0.325700
     65 H30         -0.0820    -2.2580     3.0210 hn         1 0YJ       0.318500
     66 H31          1.7700    -1.3370     2.3690 hn         1 0YJ       0.331500
     67 H32         -2.6420     1.4250    -0.4910 hn         1 0YJ       0.308500
@<TRIPOS>BOND
     1     1    16 1   
     2     1    36 1   
     3     1    37 1   
     4     1    38 1   
     5     2    24 1   
     6     2    39 1   
     7     2    40 1   
     8     2    41 1   
     9     3    24 1   
    10     3    42 1   
    11     3    43 1   
    12     3    44 1   
    13     4    27 1   
    14     4    45 1   
    15     4    46 1   
    16     4    47 1   
    17     5    27 1   
    18     5    48 1   
    19     5    49 1   
    20     5    50 1   
    21     6    27 1   
    22     6    51 1   
    23     6    52 1   
    24     6    53 1   
    25     7     8 ar  
    26     7     9 ar  
    27     7    54 1   
    28     8    18 ar  
    29     8    55 1   
    30     9    19 ar  
    31     9    56 1   
    32    10    12 ar  
    33    10    16 ar  
    34    10    57 1   
    35    11    13 ar  
    36    11    16 ar  
    37    11    58 1   
    38    12    17 ar  
    39    12    59 1   
    40    13    17 ar  
    41    13    60 1   
    42    14    18 1   
    43    14    20 2   
    44    14    61 1   
    45    15    21 1   
    46    15    22 2   
    47    15    62 1   
    48    17    33 1   
    49    18    23 ar  
    50    19    23 ar  
    51    19    30 1   
    52    20    25 1   
    53    20    28 1   
    54    21    27 1   
    55    21    29 2   
    56    22    31 1   
    57    22    33 1   
    58    23    28 1   
    59    24    32 1   
    60    24    63 1   
    61    25    32 1   
    62    25    34 2   
    63    26    30 1   
    64    26    31 1   
    65    26    35 2   
    66    28    64 1   
    67    29    33 1   
    68    30    65 1   
    69    31    66 1   
    70    32    67 1   
@<TRIPOS>SUBSTRUCTURE
     1 0YJ         1 TEMP              0 ****  ****    0 ROOT
