@<TRIPOS>MOLECULE
0YK
   49    52     1     0     0
SMALL
No Charge or Current Charge


@<TRIPOS>ATOM
      1 C4          31.0970   -55.2490    18.6890 ca         1 0YK      -0.192000
      2 C5          32.8970   -56.8590    19.1630 ca         1 0YK      -0.197500
      3 C6          31.9480   -54.1710    18.9530 ca         1 0YK       0.178100
      4 C7          34.2510   -60.8630    18.9880 cc         1 0YK      -0.130000
      5 C8          33.3710   -58.2770    19.2000 cc         1 0YK       0.435500
      6 C10         34.4700   -58.7290    20.0450 cc         1 0YK       0.159000
      7 C13         33.8770   -50.2730    17.5150 c6         1 0YK      -0.073900
      8 C15         33.0460   -51.5810    17.5420 c6         1 0YK      -0.090900
      9 C17         35.8630   -60.0460    22.1760 c6         1 0YK      -0.398400
     10 C1          33.7560   -55.7530    19.3930 ca         1 0YK      -0.017500
     11 C2          31.5630   -56.5710    18.7730 ca         1 0YK      -0.017500
     12 C3          33.2870   -54.4310    19.3040 ca         1 0YK      -0.192000
     13 C9          33.1880   -60.3660    18.2430 cd         1 0YK       0.287300
     14 C11         32.9770   -49.0330    17.7350 c6         1 0YK      -0.078400
     15 C12         32.1620   -49.1590    19.0450 c6         1 0YK      -0.073900
     16 C14         31.3370   -50.4700    19.0670 c6         1 0YK      -0.090900
     17 C16         36.0090   -60.5840    20.7430 c6         1 0YK       0.067600
     18 C18         32.2410   -51.7130    18.8660 c6         1 0YK       0.176300
     19 C19         32.4520   -61.2260    17.2540 c3         1 0YK      -0.127400
     20 N20         32.7420   -59.0580    18.3300 nd         1 0YK      -0.634000
     21 N21         34.9800   -57.9240    20.9410 nf         1 0YK      -0.522600
     22 N22         34.9120   -60.0480    19.9150 na         1 0YK      -0.053000
     23 O23         35.3150   -57.8030    23.4460 o          1 0YK      -0.529500
     24 O24         37.3310   -57.8790    21.8590 o          1 0YK      -0.529500
     25 O25         31.4160   -52.8980    18.8550 os         1 0YK      -0.351100
     26 S26         35.9530   -58.2480    22.2010 sy         1 0YK       1.261600
     27 H1          30.0640   -55.0590    18.4110 ha         1 0YK       0.125500
     28 H2          34.6030   -61.8830    18.9020 h4         1 0YK       0.149000
     29 H4          34.4040   -50.1860    16.5540 hc         1 0YK       0.042950
     30 H5          32.3540   -51.5950    16.6880 hc         1 0YK       0.053950
     31 H6          33.7170   -52.4390    17.4090 hc         1 0YK       0.053950
     32 H7          34.8860   -60.3010    22.6020 h1         1 0YK       0.119200
     33 H8          36.6640   -60.3970    22.8370 h1         1 0YK       0.119200
     34 H9          34.8130   -55.8910    19.6010 ha         1 0YK       0.124500
     35 H10         30.8610   -57.3750    18.5600 ha         1 0YK       0.124500
     36 H11         33.9870   -53.6260    19.5030 ha         1 0YK       0.125500
     37 H12         33.5940   -48.1240    17.7650 hc         1 0YK       0.042200
     38 H13         32.2920   -48.9170    16.8830 hc         1 0YK       0.042200
     39 H14         32.8420   -49.1350    19.9080 hc         1 0YK       0.042950
     40 H15         31.4920   -48.2950    19.1520 hc         1 0YK       0.042950
     41 H16         30.5710   -50.4380    18.2800 hc         1 0YK       0.053950
     42 H17         30.8010   -50.5540    20.0220 hc         1 0YK       0.053950
     43 H18         35.9690   -61.6830    20.7500 h1         1 0YK       0.080700
     44 H19         36.9740   -60.2840    20.3060 h1         1 0YK       0.080700
     45 H20         32.9300   -51.7620    19.7210 h1         1 0YK       0.048700
     46 H21         31.3710   -61.1970    17.4340 hc         1 0YK       0.054700
     47 H22         32.6330   -60.8840    16.2280 hc         1 0YK       0.054700
     48 H23         32.7710   -62.2740    17.3160 hc         1 0YK       0.054700
     49 H3          34.6520   -50.3120    18.2930 hc         1 0YK       0.042950
@<TRIPOS>BOND
     1     1     3 ar  
     2     1    11 ar  
     3     1    27 1   
     4     2     5 1   
     5     2    10 ar  
     6     2    11 ar  
     7     3    12 ar  
     8     3    25 1   
     9     4    13 2   
    10     4    22 1   
    11     4    28 1   
    12     5     6 1   
    13     5    20 2   
    14     6    21 2   
    15     6    22 1   
    16     7     8 1   
    17     7    14 1   
    18     7    29 1   
    19     7    49 1   
    20     8    18 1   
    21     8    30 1   
    22     8    31 1   
    23     9    17 1   
    24     9    26 1   
    25     9    32 1   
    26     9    33 1   
    27    10    12 ar  
    28    10    34 1   
    29    11    35 1   
    30    12    36 1   
    31    13    19 1   
    32    13    20 1   
    33    14    15 1   
    34    14    37 1   
    35    14    38 1   
    36    15    16 1   
    37    15    39 1   
    38    15    40 1   
    39    16    18 1   
    40    16    41 1   
    41    16    42 1   
    42    17    22 1   
    43    17    43 1   
    44    17    44 1   
    45    18    25 1   
    46    18    45 1   
    47    19    46 1   
    48    19    47 1   
    49    19    48 1   
    50    21    26 1   
    51    23    26 2   
    52    24    26 2   
@<TRIPOS>SUBSTRUCTURE
     1 0YK         1 TEMP              0 ****  ****    0 ROOT
