@<TRIPOS>MOLECULE
0YK
   49    52     1     0     0
SMALL
bcc


@<TRIPOS>ATOM
      1 C4          31.1410   -55.2610    18.6400 ca         1 0YK      -0.210000
      2 C5          32.9330   -56.8460    19.0080 ca         1 0YK      -0.197500
      3 C6          32.0340   -54.1910    18.7530 ca         1 0YK       0.178100
      4 C7          34.1860   -60.8210    19.1050 cc         1 0YK      -0.162600
      5 C8          33.3740   -58.2480    19.0810 cc         1 0YK       0.500800
      6 C10         34.3690   -58.6530    20.0670 cc         1 0YK       0.144400
      7 C13         33.8560   -50.2240    17.5550 c6         1 0YK      -0.073900
      8 C15         33.0390   -51.5100    17.4370 c6         1 0YK      -0.090900
      9 C17         35.7620   -59.9060    22.2280 c6         1 0YK      -0.287600
     10 C1          33.8160   -55.7730    19.1080 ca         1 0YK      -0.035500
     11 C2          31.5880   -56.5610    18.7540 ca         1 0YK      -0.035500
     12 C3          33.3840   -54.4630    18.9730 ca         1 0YK      -0.210000
     13 C9          33.2020   -60.4060    18.2730 cd         1 0YK       0.352600
     14 C11         32.9750   -49.0480    17.9620 c6         1 0YK      -0.078400
     15 C12         32.2230   -49.3520    19.2540 c6         1 0YK      -0.073900
     16 C14         31.4170   -50.6440    19.1410 c6         1 0YK      -0.090900
     17 C16         35.8670   -60.4420    20.8180 c6         1 0YK       0.038300
     18 C18         32.3220   -51.8000    18.7490 c6         1 0YK       0.153100
     19 C19         32.5050   -61.3290    17.3280 c3         1 0YK      -0.127400
     20 N20         32.8320   -59.1000    18.2670 nd         1 0YK      -0.634000
     21 N21         34.7760   -57.7860    20.9570 nf         1 0YK      -0.522600
     22 N22         34.7700   -59.9500    19.9780 na         1 0YK      -0.125100
     23 O23         35.3550   -57.5370    23.3640 o          1 0YK      -0.600300
     24 O24         37.1820   -57.7510    21.6870 o          1 0YK      -0.600300
     25 O25         31.5010   -52.9650    18.6500 os         1 0YK      -0.327900
     26 S26         35.8420   -58.1270    22.1260 sy         1 0YK       1.292400
     27 H1          30.0900   -55.0610    18.4680 ha         1 0YK       0.143500
     28 H2          34.5540   -61.8360    19.1250 h4         1 0YK       0.167000
     29 H4          34.3550   -50.0180    16.6060 hc         1 0YK       0.042950
     30 H5          32.2910   -51.3980    16.6450 hc         1 0YK       0.053950
     31 H6          33.6860   -52.3420    17.1510 hc         1 0YK       0.053950
     32 H7          34.8190   -60.1830    22.7010 h1         1 0YK       0.119200
     33 H8          36.5920   -60.2630    22.8370 h1         1 0YK       0.119200
     34 H9          34.8690   -55.9470    19.2770 ha         1 0YK       0.142500
     35 H10         30.8770   -57.3720    18.6630 ha         1 0YK       0.142500
     36 H11         34.1190   -53.6740    19.0460 ha         1 0YK       0.143500
     37 H12         33.5770   -48.1450    18.0780 hc         1 0YK       0.042200
     38 H13         32.2530   -48.8460    17.1640 hc         1 0YK       0.042200
     39 H14         32.9390   -49.4430    20.0780 hc         1 0YK       0.042950
     40 H15         31.5570   -48.5260    19.5130 hc         1 0YK       0.042950
     41 H16         30.6360   -50.5240    18.3830 hc         1 0YK       0.053950
     42 H17         30.9200   -50.8660    20.0880 hc         1 0YK       0.053950
     43 H18         35.8240   -61.5280    20.8320 h1         1 0YK       0.080700
     44 H19         36.8130   -60.1520    20.3580 h1         1 0YK       0.080700
     45 H20         33.0630   -51.9420    19.5480 h1         1 0YK       0.048700
     46 H21         31.4390   -61.3780    17.5530 hc         1 0YK       0.054700
     47 H22         32.6060   -60.9820    16.3000 hc         1 0YK       0.054700
     48 H23         32.9100   -62.3380    17.3890 hc         1 0YK       0.054700
     49 H3          34.6470   -50.3630    18.2990 hc         1 0YK       0.042950
@<TRIPOS>BOND
     1     1     3 ar  
     2     1    11 ar  
     3     1    27 1   
     4     2     5 1   
     5     2    10 ar  
     6     2    11 ar  
     7     3    12 ar  
     8     3    25 1   
     9     4    13 2   
    10     4    22 1   
    11     4    28 1   
    12     5     6 1   
    13     5    20 2   
    14     6    21 2   
    15     6    22 1   
    16     7     8 1   
    17     7    14 1   
    18     7    29 1   
    19     7    49 1   
    20     8    18 1   
    21     8    30 1   
    22     8    31 1   
    23     9    17 1   
    24     9    26 1   
    25     9    32 1   
    26     9    33 1   
    27    10    12 ar  
    28    10    34 1   
    29    11    35 1   
    30    12    36 1   
    31    13    19 1   
    32    13    20 1   
    33    14    15 1   
    34    14    37 1   
    35    14    38 1   
    36    15    16 1   
    37    15    39 1   
    38    15    40 1   
    39    16    18 1   
    40    16    41 1   
    41    16    42 1   
    42    17    22 1   
    43    17    43 1   
    44    17    44 1   
    45    18    25 1   
    46    18    45 1   
    47    19    46 1   
    48    19    47 1   
    49    19    48 1   
    50    21    26 1   
    51    23    26 2   
    52    24    26 2   
@<TRIPOS>SUBSTRUCTURE
     1 0YK         1 TEMP              0 ****  ****    0 ROOT
