@<TRIPOS>MOLECULE
0YN
   35    36     1     0     0
SMALL
No Charge or Current Charge


@<TRIPOS>ATOM
      1 C2A          5.0540     1.6850     1.2720 c3         1 0YN      -0.134400
      2 C35          0.8400    -0.6400    -1.8630 c3         1 0YN       0.052200
      3 C2          -0.9690    -2.1570    -0.9320 cc         1 0YN      -0.263000
      4 S1          -2.4530    -2.1280    -0.0030 ss         1 0YN       0.198000
      5 C5          -2.3430    -0.3820     0.1630 cc         1 0YN      -0.205300
      6 C4          -1.2340     0.1240    -0.4830 cd         1 0YN      -0.081300
      7 C4A         -0.8710     1.5920    -0.5280 c3         1 0YN      -0.029800
      8 C5A         -3.3970     0.3660     0.9450 c3         1 0YN      -0.012100
      9 C5B         -4.5640     0.8510     0.0610 c3         1 0YN       0.163600
     10 O5G         -5.5320     1.5430     0.8600 oh         1 0YN      -0.662000
     11 N1           3.5460     1.7400    -0.6530 nb         1 0YN      -0.220000
     12 C1           3.9420     1.0640     0.4460 ca         1 0YN       0.178300
     13 N3           3.4400    -0.1100     0.8830 nb         1 0YN      -0.273000
     14 C8           2.4570    -0.6480     0.1490 ca         1 0YN       0.389900
     15 N4           1.9640    -1.8200     0.6190 nv         1 0YN      -1.062900
     16 C7           1.9600    -0.0360    -1.0150 ca         1 0YN      -0.258300
     17 C6           2.5560     1.1860    -1.3810 ca         1 0YN       0.136900
     18 C3          -0.4440    -0.8990    -1.1040 cd         1 0YN      -0.101300
     19 H1           4.6410     2.3220     2.0630 hc         1 0YN       0.057367
     20 H2           5.6750     0.9170     1.7500 hc         1 0YN       0.057367
     21 H3           5.7160     2.3040     0.6550 hc         1 0YN       0.057367
     22 H4           0.6220     0.0110    -2.7190 hc         1 0YN       0.056200
     23 H5           1.1990    -1.5770    -2.3070 hc         1 0YN       0.056200
     24 H6          -0.5950    -3.1070    -1.2930 h4         1 0YN       0.150000
     25 H7          -0.1290     1.8330     0.2420 hc         1 0YN       0.045700
     26 H8          -0.4500     1.8710    -1.5000 hc         1 0YN       0.045700
     27 H9          -1.7430     2.2350    -0.3640 hc         1 0YN       0.045700
     28 H10         -3.7970    -0.2820     1.7350 hc         1 0YN       0.065700
     29 H11         -2.9490     1.2260     1.4580 hc         1 0YN       0.065700
     30 H12         -4.1720     1.5130    -0.7220 h1         1 0YN       0.022200
     31 H13         -5.0260    -0.0160    -0.4310 h1         1 0YN       0.022200
     32 H14         -6.2510     1.8300     0.2520 ho         1 0YN       0.445000
     33 H15          2.1940    -2.0760     1.5750 hn         1 0YN       0.489500
     34 H16          1.0340    -2.0820     0.2980 hn         1 0YN       0.489500
     35 H17          2.2380     1.7330    -2.2670 h4         1 0YN       0.014100
@<TRIPOS>BOND
     1     1    12 1   
     2     1    19 1   
     3     1    20 1   
     4     1    21 1   
     5     2    16 1   
     6     2    18 1   
     7     2    22 1   
     8     2    23 1   
     9     3     4 1   
    10     3    18 2   
    11     3    24 1   
    12     4     5 1   
    13     5     6 2   
    14     5     8 1   
    15     6     7 1   
    16     6    18 1   
    17     7    25 1   
    18     7    26 1   
    19     7    27 1   
    20     8     9 1   
    21     8    28 1   
    22     8    29 1   
    23     9    10 1   
    24     9    30 1   
    25     9    31 1   
    26    10    32 1   
    27    11    12 ar  
    28    11    17 ar  
    29    12    13 ar  
    30    13    14 ar  
    31    14    15 1   
    32    14    16 ar  
    33    15    33 1   
    34    15    34 1   
    35    16    17 ar  
    36    17    35 1   
@<TRIPOS>SUBSTRUCTURE
     1 0YN         1 TEMP              0 ****  ****    0 ROOT
