@<TRIPOS>MOLECULE
0YN
   35    36     1     0     0
SMALL
abcg2


@<TRIPOS>ATOM
      1 C2A          5.0660     1.6500     1.2390 c3         1 0YN      -0.134400
      2 C35          0.8150    -0.6200    -1.7910 c3         1 0YN       0.052200
      3 C2          -1.0240    -2.0790    -0.8600 cc         1 0YN      -0.263000
      4 S1          -2.4700    -2.0010     0.0520 ss         1 0YN       0.198000
      5 C5          -2.3500    -0.2870     0.2130 cc         1 0YN      -0.205300
      6 C4          -1.2380     0.1950    -0.4200 cd         1 0YN      -0.081300
      7 C4A         -0.8710     1.6450    -0.4910 c3         1 0YN      -0.029800
      8 C5A         -3.4260     0.4700     0.9210 c3         1 0YN      -0.012100
      9 C5B         -4.5920     0.7850    -0.0070 c3         1 0YN       0.163600
     10 O5G         -5.5620     1.5000     0.7220 oh         1 0YN      -0.662000
     11 N1           3.4940     1.7430    -0.5930 nb         1 0YN      -0.220000
     12 C1           3.9620     1.0420     0.4310 ca         1 0YN       0.178300
     13 N3           3.5150    -0.1440     0.8190 nb         1 0YN      -0.273000
     14 C8           2.5090    -0.6980     0.1380 ca         1 0YN       0.389900
     15 N4           2.1100    -1.9230     0.5280 nv         1 0YN      -1.062900
     16 C7           1.9280    -0.0350    -0.9680 ca         1 0YN      -0.258300
     17 C6           2.4870     1.1850    -1.2660 ca         1 0YN       0.136900
     18 C3          -0.4650    -0.8490    -1.0330 cd         1 0YN      -0.101300
     19 H1           4.6470     2.2880     2.0210 hc         1 0YN       0.057367
     20 H2           5.6650     0.8850     1.7280 hc         1 0YN       0.057367
     21 H3           5.7080     2.2720     0.6200 hc         1 0YN       0.057367
     22 H4           0.6210     0.0550    -2.6300 hc         1 0YN       0.056200
     23 H5           1.1370    -1.5670    -2.2350 hc         1 0YN       0.056200
     24 H6          -0.6610    -3.0260    -1.2330 h4         1 0YN       0.150000
     25 H7          -0.0580     1.8910     0.1940 hc         1 0YN       0.045700
     26 H8          -0.5410     1.9180    -1.4930 hc         1 0YN       0.045700
     27 H9          -1.7140     2.2880    -0.2420 hc         1 0YN       0.045700
     28 H10         -3.7880    -0.1000     1.7810 hc         1 0YN       0.065700
     29 H11         -3.0140     1.4000     1.3190 hc         1 0YN       0.065700
     30 H12         -4.2190     1.3610    -0.8640 h1         1 0YN       0.022200
     31 H13         -4.9960    -0.1540    -0.4080 h1         1 0YN       0.022200
     32 H14         -6.2960     1.6950     0.1320 ho         1 0YN       0.445000
     33 H15          2.4680    -2.2740     1.4010 hn         1 0YN       0.489500
     34 H16          1.2120    -2.2780     0.2460 hn         1 0YN       0.489500
     35 H17          2.0980     1.7530    -2.1070 h4         1 0YN       0.014100
@<TRIPOS>BOND
     1     1    12 1   
     2     1    19 1   
     3     1    20 1   
     4     1    21 1   
     5     2    16 1   
     6     2    18 1   
     7     2    22 1   
     8     2    23 1   
     9     3     4 1   
    10     3    18 2   
    11     3    24 1   
    12     4     5 1   
    13     5     6 2   
    14     5     8 1   
    15     6     7 1   
    16     6    18 1   
    17     7    25 1   
    18     7    26 1   
    19     7    27 1   
    20     8     9 1   
    21     8    28 1   
    22     8    29 1   
    23     9    10 1   
    24     9    30 1   
    25     9    31 1   
    26    10    32 1   
    27    11    12 ar  
    28    11    17 ar  
    29    12    13 ar  
    30    13    14 ar  
    31    14    15 1   
    32    14    16 ar  
    33    15    33 1   
    34    15    34 1   
    35    16    17 ar  
    36    17    35 1   
@<TRIPOS>SUBSTRUCTURE
     1 0YN         1 TEMP              0 ****  ****    0 ROOT
