@<TRIPOS>MOLECULE
0YO
   45    49     1     0     0
SMALL
No Charge or Current Charge


@<TRIPOS>ATOM
      1 C1          -1.3800     1.0140    -0.0310 cp         1 0YO       0.183500
      2 C2          -0.4490     3.1280    -0.0200 ca         1 0YO       0.042900
      3 C3           0.8500     2.5710    -0.0570 ca         1 0YO       0.018100
      4 C7          -3.9180     0.6990     0.0200 ca         1 0YO      -0.018000
      5 C8          -5.0320    -0.1580     0.0320 ca         1 0YO      -0.097000
      6 C9          -4.8290    -1.5590     0.0060 ca         1 0YO       0.279000
      7 C10         -5.9560    -2.4020     0.0190 ca         1 0YO      -0.086000
      8 C11         -7.2580    -1.8710     0.0550 ca         1 0YO      -0.097000
      9 C12         -7.4460    -0.4800     0.0800 ca         1 0YO      -0.113000
     10 C13         -6.3350     0.3780     0.0680 ca         1 0YO      -0.084000
     11 C14          2.2350     0.4460    -0.1210 cc         1 0YO      -0.277500
     12 C15          2.3700    -0.9210    -0.1340 cd         1 0YO      -0.032000
     13 C16          4.4550    -0.0480    -0.2210 cc         1 0YO      -0.117300
     14 C19          6.6000    -1.2870     0.1120 c6         1 0YO       0.116000
     15 C20          5.9470     0.0320    -0.3770 c6         1 0YO      -0.025100
     16 C21          1.9170     4.8020    -0.0480 c3         1 0YO       0.148900
     17 C17          3.7510    -1.2200    -0.1870 cd         1 0YO      -0.245600
     18 C18          4.4140    -2.5450    -0.2350 c          1 0YO       0.605600
     19 O1           3.8180    -3.6070    -0.3170 o          1 0YO      -0.557000
     20 N5           5.7910    -2.4950    -0.1580 ns         1 0YO      -0.510900
     21 N4           3.5220     0.9870    -0.1820 na         1 0YO      -0.065000
     22 C4           0.9430     1.1530    -0.0790 ca         1 0YO       0.211500
     23 N2          -0.1790     0.3980    -0.0660 nb         1 0YO      -0.164000
     24 N1          -1.5490     2.3530    -0.0070 nb         1 0YO      -0.159000
     25 C5          -2.6100     0.1500    -0.0170 cp         1 0YO      -0.202500
     26 N3          -3.5900    -2.0950    -0.0290 nb         1 0YO      -0.667000
     27 C6          -2.5190    -1.2670    -0.0400 ca         1 0YO       0.389900
     28 O2           1.9890     3.3640    -0.0720 os         1 0YO      -0.355100
     29 H1          -0.6250     4.2020    -0.0010 h4         1 0YO       0.027100
     30 H2          -4.0720     1.7760     0.0390 ha         1 0YO       0.137000
     31 H3          -5.8170    -3.4790    -0.0000 ha         1 0YO       0.133000
     32 H4          -8.1170    -2.5370     0.0640 ha         1 0YO       0.116000
     33 H5          -8.4530    -0.0670     0.1080 ha         1 0YO       0.115000
     34 H6          -6.4870     1.4550     0.0870 ha         1 0YO       0.116000
     35 H7           1.5660    -1.6540    -0.1080 ha         1 0YO       0.163000
     36 H8           7.5930    -1.4060    -0.3440 h1         1 0YO       0.043200
     37 H9           6.1980     0.1830    -1.4360 hc         1 0YO       0.062200
     38 H10          6.3700     0.8850     0.1690 hc         1 0YO       0.062200
     39 H11          1.4120     5.1530     0.8610 h1         1 0YO       0.048033
     40 H12          2.9260     5.2340    -0.0640 h1         1 0YO       0.048033
     41 H13          1.3720     5.1800    -0.9220 h1         1 0YO       0.048033
     42 H14          3.7360     1.9800    -0.2070 hn         1 0YO       0.362000
     43 H15         -1.5510    -1.7650    -0.0690 h4         1 0YO       0.042100
     44 H16          6.7420    -1.2270     1.2000 h1         1 0YO       0.043200
     45 H17          6.2640    -3.3890    -0.2000 hn         1 0YO       0.313500
@<TRIPOS>BOND
     1     1    23 ar  
     2     1    24 ar  
     3     1    25 1   
     4     2     3 ar  
     5     2    24 ar  
     6     2    29 1   
     7     3    22 ar  
     8     3    28 1   
     9     4     5 ar  
    10     4    25 ar  
    11     4    30 1   
    12     5     6 ar  
    13     5    10 ar  
    14     6     7 ar  
    15     6    26 ar  
    16     7     8 ar  
    17     7    31 1   
    18     8     9 ar  
    19     8    32 1   
    20     9    10 ar  
    21     9    33 1   
    22    10    34 1   
    23    11    12 2   
    24    11    21 1   
    25    11    22 1   
    26    12    17 1   
    27    12    35 1   
    28    13    15 1   
    29    13    17 2   
    30    13    21 1   
    31    14    15 1   
    32    14    20 1   
    33    14    36 1   
    34    14    44 1   
    35    15    37 1   
    36    15    38 1   
    37    16    28 1   
    38    16    39 1   
    39    16    40 1   
    40    16    41 1   
    41    17    18 1   
    42    18    19 2   
    43    18    20 1   
    44    20    45 1   
    45    21    42 1   
    46    22    23 ar  
    47    25    27 ar  
    48    26    27 ar  
    49    27    43 1   
@<TRIPOS>SUBSTRUCTURE
     1 0YO         1 TEMP              0 ****  ****    0 ROOT
