@<TRIPOS>MOLECULE
0YO
   45    49     1     0     0
SMALL
abcg2


@<TRIPOS>ATOM
      1 C1          -1.3590     1.0340    -0.0620 cp         1 0YO       0.183500
      2 C2          -0.4230     3.0930    -0.0440 ca         1 0YO       0.042900
      3 C3           0.8500     2.5430    -0.0990 ca         1 0YO       0.018100
      4 C7          -3.8260     0.7380     0.0470 ca         1 0YO      -0.018000
      5 C8          -4.9550    -0.1040     0.0660 ca         1 0YO      -0.097000
      6 C9          -4.7390    -1.5020    -0.0100 ca         1 0YO       0.279000
      7 C10         -5.8510    -2.3710     0.0090 ca         1 0YO      -0.086000
      8 C11         -7.1200    -1.8630     0.0990 ca         1 0YO      -0.097000
      9 C12         -7.3360    -0.4710     0.1740 ca         1 0YO      -0.113000
     10 C13         -6.2750     0.3930     0.1580 ca         1 0YO      -0.084000
     11 C14          2.1640     0.3810    -0.1880 cc         1 0YO      -0.277500
     12 C15          2.3050    -0.9930    -0.2160 cd         1 0YO      -0.032000
     13 C16          4.3490    -0.0480    -0.2420 cc         1 0YO      -0.117300
     14 C19          6.4110    -1.2050     0.2750 c6         1 0YO       0.116000
     15 C20          5.8260     0.0720    -0.3190 c6         1 0YO      -0.025100
     16 C21          1.9150     4.6670    -0.0870 c3         1 0YO       0.148900
     17 C17          3.6860    -1.2610    -0.2450 cd         1 0YO      -0.245600
     18 C18          4.4100    -2.5270    -0.3400 c          1 0YO       0.605600
     19 O1           3.8580    -3.6060    -0.5260 o          1 0YO      -0.557000
     20 N5           5.7560    -2.3930    -0.2500 ns         1 0YO      -0.510900
     21 N4           3.4320     0.9260    -0.2110 na         1 0YO      -0.065000
     22 C4           0.9290     1.1370    -0.1340 ca         1 0YO       0.211500
     23 N2          -0.1890     0.4190    -0.1150 nb         1 0YO      -0.164000
     24 N1          -1.5200     2.3490    -0.0250 nb         1 0YO      -0.159000
     25 C5          -2.5710     0.1930    -0.0420 cp         1 0YO      -0.202500
     26 N3          -3.4940    -2.0300    -0.1000 nb         1 0YO      -0.667000
     27 C6          -2.4720    -1.2210    -0.1140 ca         1 0YO       0.389900
     28 O2           1.9880     3.2480    -0.1200 os         1 0YO      -0.355100
     29 H1          -0.5700     4.1660    -0.0140 h4         1 0YO       0.027100
     30 H2          -3.9570     1.8120     0.1030 ha         1 0YO       0.137000
     31 H3          -5.6780    -3.4380    -0.0490 ha         1 0YO       0.133000
     32 H4          -7.9690    -2.5350     0.1130 ha         1 0YO       0.116000
     33 H5          -8.3460    -0.0900     0.2460 ha         1 0YO       0.115000
     34 H6          -6.4310     1.4630     0.2140 ha         1 0YO       0.116000
     35 H7           1.4980    -1.7070    -0.2070 ha         1 0YO       0.163000
     36 H8           7.4710    -1.2760     0.0410 h1         1 0YO       0.043200
     37 H9           6.1380     0.1920    -1.3610 hc         1 0YO       0.062200
     38 H10          6.1990     0.9360     0.2320 hc         1 0YO       0.062200
     39 H11          1.4370     5.0200     0.8280 h1         1 0YO       0.048033
     40 H12          2.9410     5.0240    -0.1140 h1         1 0YO       0.048033
     41 H13          1.3770     5.0590    -0.9520 h1         1 0YO       0.048033
     42 H14          3.6330     1.9140    -0.2010 hn         1 0YO       0.362000
     43 H15         -1.4910    -1.6760    -0.1870 h4         1 0YO       0.042100
     44 H16          6.3190    -1.1670     1.3660 h1         1 0YO       0.043200
     45 H17          6.2890    -3.2500    -0.2290 hn         1 0YO       0.313500
@<TRIPOS>BOND
     1     1    23 ar  
     2     1    24 ar  
     3     1    25 1   
     4     2     3 ar  
     5     2    24 ar  
     6     2    29 1   
     7     3    22 ar  
     8     3    28 1   
     9     4     5 ar  
    10     4    25 ar  
    11     4    30 1   
    12     5     6 ar  
    13     5    10 ar  
    14     6     7 ar  
    15     6    26 ar  
    16     7     8 ar  
    17     7    31 1   
    18     8     9 ar  
    19     8    32 1   
    20     9    10 ar  
    21     9    33 1   
    22    10    34 1   
    23    11    12 2   
    24    11    21 1   
    25    11    22 1   
    26    12    17 1   
    27    12    35 1   
    28    13    15 1   
    29    13    17 2   
    30    13    21 1   
    31    14    15 1   
    32    14    20 1   
    33    14    36 1   
    34    14    44 1   
    35    15    37 1   
    36    15    38 1   
    37    16    28 1   
    38    16    39 1   
    39    16    40 1   
    40    16    41 1   
    41    17    18 1   
    42    18    19 2   
    43    18    20 1   
    44    20    45 1   
    45    21    42 1   
    46    22    23 ar  
    47    25    27 ar  
    48    26    27 ar  
    49    27    43 1   
@<TRIPOS>SUBSTRUCTURE
     1 0YO         1 TEMP              0 ****  ****    0 ROOT
