@<TRIPOS>MOLECULE
0YP
   53    55     1     0     0
SMALL
No Charge or Current Charge


@<TRIPOS>ATOM
      1 C1          -2.1270     1.0130    -0.0220 c          1 0YP       0.620700
      2 N1          -1.1040     0.1450     0.3140 ns         1 0YP      -0.404100
      3 O1          -1.9050     2.1500    -0.4180 o          1 0YP      -0.565100
      4 C2           0.3090     0.3300     0.3740 ce         1 0YP       0.011400
      5 N2           1.8570     2.3060     0.0060 n          1 0YP      -0.370800
      6 O2           0.2150     2.3860     1.6060 o          1 0YP      -0.605100
      7 C3           0.7600     1.7470     0.7090 c          1 0YP       0.622300
      8 C4           2.3970     3.6310     0.4300 c6         1 0YP       0.096500
      9 C5           3.8300     3.9180    -0.0770 c6         1 0YP      -0.090400
     10 C6           3.9430     3.7030    -1.5980 c6         1 0YP      -0.074400
     11 C7           3.5050     2.2690    -1.9430 c6         1 0YP      -0.090400
     12 C8           2.0710     1.9830    -1.4400 c6         1 0YP       0.096500
     13 C9           1.1940    -0.6970     0.1810 cf         1 0YP      -0.010500
     14 C10          2.6640    -0.6820     0.3480 ca         1 0YP      -0.095800
     15 C11          3.5340    -1.1370    -0.6730 ca         1 0YP       0.166100
     16 C12          4.9320    -1.0960    -0.4710 ca         1 0YP      -0.206000
     17 C13          5.4610    -0.6020     0.7310 ca         1 0YP      -0.059000
     18 C14          4.6000    -0.1440     1.7390 ca         1 0YP      -0.149000
     19 C15          3.2110    -0.1850     1.5490 ca         1 0YP      -0.046000
     20 C16         -3.5400     0.4680     0.0850 ca         1 0YP      -0.107600
     21 C17         -4.6250     1.2660    -0.3440 ca         1 0YP      -0.083000
     22 C18         -5.9470     0.7980    -0.2620 ca         1 0YP      -0.055000
     23 C19         -6.2220    -0.4870     0.2570 ca         1 0YP      -0.158200
     24 C20         -5.1440    -1.2890     0.6930 ca         1 0YP      -0.055000
     25 C21         -3.8210    -0.8190     0.6100 ca         1 0YP      -0.083000
     26 N01         -7.6330    -0.9890     0.3450 no         1 0YP       0.692200
     27 O01         -7.8230    -2.1220     0.8080 o          1 0YP      -0.392000
     28 C02          3.7960    -1.9830    -2.9840 c3         1 0YP       0.145900
     29 O02         -8.5440    -0.2490    -0.0490 o          1 0YP      -0.392000
     30 O03          2.9880    -1.5650    -1.8700 os         1 0YP      -0.333100
     31 Br1          0.4720    -2.4890    -0.1820 br         1 0YP      -0.088700
     32 H1          -1.3830    -0.8190     0.4340 hn         1 0YP       0.339500
     33 H3           1.7210     4.4160     0.0600 h1         1 0YP       0.057950
     34 H4           2.3990     3.6950     1.5280 h1         1 0YP       0.057950
     35 H5           4.1180     4.9450     0.1820 hc         1 0YP       0.048950
     36 H6           4.5370     3.2550     0.4410 hc         1 0YP       0.048950
     37 H7           3.3140     4.4300    -2.1300 hc         1 0YP       0.042200
     38 H8           4.9780     3.8730    -1.9280 hc         1 0YP       0.042200
     39 H9           3.5560     2.1090    -3.0280 hc         1 0YP       0.048950
     40 H10          4.2020     1.5540    -1.4880 hc         1 0YP       0.048950
     41 H11          1.8230     0.9390    -1.6600 h1         1 0YP       0.057950
     42 H12          1.3690     2.5940    -2.0260 h1         1 0YP       0.057950
     43 H14          5.6240    -1.4330    -1.2370 ha         1 0YP       0.119000
     44 H15          6.5390    -0.5690     0.8810 ha         1 0YP       0.113000
     45 H16          5.0100     0.2410     2.6700 ha         1 0YP       0.122000
     46 H17          2.5550     0.1650     2.3430 ha         1 0YP       0.130000
     47 H18         -4.4460     2.2600    -0.7490 ha         1 0YP       0.141500
     48 H19         -6.7540     1.4440    -0.6060 ha         1 0YP       0.157000
     49 H20         -5.3210    -2.2830     1.1030 ha         1 0YP       0.157000
     50 H21         -3.0280    -1.4710     0.9690 ha         1 0YP       0.141500
     51 H01          4.4160    -2.8470    -2.7130 h1         1 0YP       0.043033
     52 H04          3.1580    -2.2730    -3.8270 h1         1 0YP       0.043033
     53 H05          4.4510    -1.1680    -3.3180 h1         1 0YP       0.043033
@<TRIPOS>BOND
     1     1     2 1   
     2     1     3 2   
     3     1    20 1   
     4     2     4 1   
     5     2    32 1   
     6     4     7 1   
     7     4    13 2   
     8     5     7 1   
     9     5     8 1   
    10     5    12 1   
    11     6     7 2   
    12     8     9 1   
    13     8    33 1   
    14     8    34 1   
    15     9    10 1   
    16     9    35 1   
    17     9    36 1   
    18    10    11 1   
    19    10    37 1   
    20    10    38 1   
    21    11    12 1   
    22    11    39 1   
    23    11    40 1   
    24    12    41 1   
    25    12    42 1   
    26    13    14 1   
    27    13    31 1   
    28    14    15 ar  
    29    14    19 ar  
    30    15    16 ar  
    31    15    30 1   
    32    16    17 ar  
    33    16    43 1   
    34    17    18 ar  
    35    17    44 1   
    36    18    19 ar  
    37    18    45 1   
    38    19    46 1   
    39    20    21 ar  
    40    20    25 ar  
    41    21    22 ar  
    42    21    47 1   
    43    22    23 ar  
    44    22    48 1   
    45    23    24 ar  
    46    23    26 1   
    47    24    25 ar  
    48    24    49 1   
    49    25    50 1   
    50    26    27 1   
    51    26    29 1   
    52    28    30 1   
    53    28    51 1   
    54    28    52 1   
    55    28    53 1   
@<TRIPOS>SUBSTRUCTURE
     1 0YP         1 TEMP              0 ****  ****    0 ROOT
