@<TRIPOS>MOLECULE
0YP
   53    55     1     0     0
SMALL
bcc


@<TRIPOS>ATOM
      1 C1          -1.8520     0.7550    -0.1590 c          1 0YP       0.687700
      2 N1          -0.9630    -0.1410     0.3350 ns         1 0YP      -0.471100
      3 O1          -1.5110     1.7990    -0.6800 o          1 0YP      -0.565100
      4 C2           0.4110     0.0850     0.3370 ce         1 0YP       0.011400
      5 N2           1.5670     2.2040    -0.1730 n          1 0YP      -0.437800
      6 O2           0.4600     1.9030     1.7840 o          1 0YP      -0.605100
      7 C3           0.8190     1.5030     0.6850 c          1 0YP       0.689300
      8 C4           1.9680     3.5580     0.1830 c6         1 0YP       0.096500
      9 C5           3.4100     3.8200    -0.2220 c6         1 0YP      -0.090400
     10 C6           3.6200     3.5390    -1.7040 c6         1 0YP      -0.074400
     11 C7           3.1800     2.1180    -2.0260 c6         1 0YP      -0.090400
     12 C8           1.7470     1.8680    -1.5780 c6         1 0YP       0.096500
     13 C9           1.3100    -0.9030     0.2920 cf         1 0YP      -0.010500
     14 C10          2.7530    -0.7310     0.4910 ca         1 0YP      -0.095800
     15 C11          3.6540    -1.0560    -0.5370 ca         1 0YP       0.166100
     16 C12          5.0210    -0.8930    -0.3330 ca         1 0YP      -0.224000
     17 C13          5.4840    -0.3980     0.8790 ca         1 0YP      -0.077000
     18 C14          4.6040    -0.0690     1.8980 ca         1 0YP      -0.167000
     19 C15          3.2430    -0.2470     1.6990 ca         1 0YP      -0.064000
     20 C16         -3.2920     0.3830    -0.0150 ca         1 0YP      -0.107600
     21 C17         -4.2230     1.4120     0.0980 ca         1 0YP      -0.101000
     22 C18         -5.5690     1.1280     0.2300 ca         1 0YP      -0.073000
     23 C19         -5.9740    -0.1980     0.2280 ca         1 0YP      -0.158200
     24 C20         -5.0700    -1.2390     0.0920 ca         1 0YP      -0.073000
     25 C21         -3.7240    -0.9400    -0.0280 ca         1 0YP      -0.101000
     26 N01         -7.3930    -0.5070     0.3670 no         1 0YP       0.312200
     27 O01         -7.7180    -1.6690     0.3910 o          1 0YP      -0.202000
     28 C02          3.9540    -1.8200    -2.7630 c3         1 0YP       0.122700
     29 O02         -8.1670     0.4160     0.4510 o          1 0YP      -0.202000
     30 O03          3.1060    -1.4890    -1.6810 os         1 0YP      -0.309900
     31 BR1          0.7240    -2.7010     0.0870 br         1 0YP      -0.088700
     32 H1          -1.3060    -0.9590     0.8170 hn         1 0YP       0.339500
     33 H3           1.3030     4.2690    -0.3230 h1         1 0YP       0.057950
     34 H4           1.8380     3.6980     1.2520 h1         1 0YP       0.057950
     35 H5           3.6590     4.8550     0.0200 hc         1 0YP       0.048950
     36 H6           4.0700     3.1820     0.3740 hc         1 0YP       0.048950
     37 H7           3.0340     4.2510    -2.2950 hc         1 0YP       0.042200
     38 H8           4.6660     3.6870    -1.9800 hc         1 0YP       0.042200
     39 H9           3.2470     1.9190    -3.0980 hc         1 0YP       0.048950
     40 H10          3.8450     1.4110    -1.5250 hc         1 0YP       0.048950
     41 H11          1.4660     0.8330    -1.7520 h1         1 0YP       0.057950
     42 H12          1.0640     2.4890    -2.1700 h1         1 0YP       0.057950
     43 H14          5.7330    -1.1340    -1.1110 ha         1 0YP       0.137000
     44 H15          6.5500    -0.2710     1.0200 ha         1 0YP       0.131000
     45 H16          4.9700     0.3140     2.8400 ha         1 0YP       0.140000
     46 H17          2.5450    -0.0120     2.4920 ha         1 0YP       0.148000
     47 H18         -3.8970     2.4430     0.0930 ha         1 0YP       0.159500
     48 H19         -6.2800     1.9340     0.3320 ha         1 0YP       0.175000
     49 H20         -5.3940    -2.2690     0.0750 ha         1 0YP       0.175000
     50 H21         -3.0300    -1.7600    -0.1580 ha         1 0YP       0.159500
     51 H01          4.6460    -2.6270    -2.5070 h1         1 0YP       0.043033
     52 H04          3.3070    -2.1540    -3.5700 h1         1 0YP       0.043033
     53 H05          4.5290    -0.9560    -3.1050 h1         1 0YP       0.043033
@<TRIPOS>BOND
     1     1     2 1   
     2     1     3 2   
     3     1    20 1   
     4     2     4 1   
     5     2    32 1   
     6     4     7 1   
     7     4    13 2   
     8     5     7 1   
     9     5     8 1   
    10     5    12 1   
    11     6     7 2   
    12     8     9 1   
    13     8    33 1   
    14     8    34 1   
    15     9    10 1   
    16     9    35 1   
    17     9    36 1   
    18    10    11 1   
    19    10    37 1   
    20    10    38 1   
    21    11    12 1   
    22    11    39 1   
    23    11    40 1   
    24    12    41 1   
    25    12    42 1   
    26    13    14 1   
    27    13    31 1   
    28    14    15 ar  
    29    14    19 ar  
    30    15    16 ar  
    31    15    30 1   
    32    16    17 ar  
    33    16    43 1   
    34    17    18 ar  
    35    17    44 1   
    36    18    19 ar  
    37    18    45 1   
    38    19    46 1   
    39    20    21 ar  
    40    20    25 ar  
    41    21    22 ar  
    42    21    47 1   
    43    22    23 ar  
    44    22    48 1   
    45    23    24 ar  
    46    23    26 1   
    47    24    25 ar  
    48    24    49 1   
    49    25    50 1   
    50    26    27 1   
    51    26    29 1   
    52    28    30 1   
    53    28    51 1   
    54    28    52 1   
    55    28    53 1   
@<TRIPOS>SUBSTRUCTURE
     1 0YP         1 TEMP              0 ****  ****    0 ROOT
