@<TRIPOS>MOLECULE
0YQ
   54    55     1     0     0
SMALL
No Charge or Current Charge


@<TRIPOS>ATOM
      1 O33          5.4640     1.5100     1.3270 o          1 0YQ      -0.760750
      2 C31          6.3960     1.4780     0.5320 c          1 0YQ       0.707000
      3 O32          7.4970     1.9500     0.7850 o          1 0YQ      -0.760750
      4 C30          6.1500     0.8350    -0.8860 c3         1 0YQ       0.053300
      5 N25          6.1750    -0.6660    -1.0280 n3         1 0YQ      -0.690600
      6 C26          7.5550    -1.2530    -0.8920 c3         1 0YQ       0.053300
      7 C27          8.6650    -0.8340    -1.9270 c          1 0YQ       0.707000
      8 O29          8.5460    -1.1870    -3.0950 o          1 0YQ      -0.760750
      9 O28          9.6360    -0.2030    -1.5270 o          1 0YQ      -0.760750
     10 C23          5.1600    -1.3760    -0.1770 c3         1 0YQ       0.135800
     11 C22          3.6490    -1.0400    -0.3870 c          1 0YQ       0.591100
     12 O24          2.9070    -1.7140    -1.0930 o          1 0YQ      -0.585100
     13 N21          3.1910     0.0710     0.2930 ns         1 0YQ      -0.530900
     14 C20          1.8130     0.5710     0.2720 c3         1 0YQ       0.091000
     15 C19          0.8360    -0.3310     1.0600 c3         1 0YQ       0.072000
     16 N17         -0.5180     0.2320     1.1410 ns         1 0YQ      -0.512900
     17 C16         -1.4120     0.3000     0.0890 c          1 0YQ       0.597100
     18 O18         -1.1500    -0.1090    -1.0350 o          1 0YQ      -0.532100
     19 C12         -2.7140     1.0180     0.5640 c5         1 0YQ       0.080300
     20 C11         -3.5290     0.1110     1.5350 c5         1 0YQ       0.098300
     21 O15         -2.9920     0.0790     2.8740 oh         1 0YQ      -0.722000
     22 C10         -4.9110     0.8400     1.5160 c5         1 0YQ       0.105300
     23 O14         -4.8820     1.8660     2.5200 oh         1 0YQ      -0.725000
     24 O13         -3.6390     1.2340    -0.5300 os         1 0YQ      -0.402000
     25 C9          -4.9480     1.4190     0.0490 c5         1 0YQ       0.336700
     26 N5          -6.0390     0.7280    -0.6980 n          1 0YQ      -0.317000
     27 C6          -7.2660     1.3840    -0.8260 cc         1 0YQ       0.018600
     28 C1          -8.2700     0.7950    -1.5570 cd         1 0YQ      -0.388200
     29 C4          -5.8280    -0.5420    -1.2860 c          1 0YQ       0.625000
     30 O8          -4.8070    -1.1980    -1.1680 o          1 0YQ      -0.546000
     31 N3          -6.8720    -1.0490    -1.9970 ns         1 0YQ      -0.467500
     32 C2          -8.0960    -0.5040    -2.2060 c          1 0YQ       0.594200
     33 O7          -8.9560    -1.0590    -2.8660 o          1 0YQ      -0.536000
     34 H2           5.1770     1.2100    -1.2300 h1         1 0YQ       0.028200
     35 H3           6.8890     1.2750    -1.5690 h1         1 0YQ       0.028200
     36 H5           7.9430    -1.0350     0.1130 h1         1 0YQ       0.028200
     37 H6           7.4850    -2.3470    -0.9610 h1         1 0YQ       0.028200
     38 H8           5.2520    -2.4590    -0.3400 h1         1 0YQ       0.026200
     39 H9           5.3860    -1.2070     0.8840 h1         1 0YQ       0.026200
     40 H10          3.8940     0.5960     0.8150 hn         1 0YQ       0.310500
     41 H11          1.8080     1.5770     0.7110 h1         1 0YQ       0.046200
     42 H12          1.4820     0.6560    -0.7710 h1         1 0YQ       0.046200
     43 H13          0.7820    -1.3200     0.5870 h1         1 0YQ       0.062200
     44 H14          1.2160    -0.4660     2.0820 h1         1 0YQ       0.062200
     45 H15         -0.8580     0.5560     2.0420 hn         1 0YQ       0.303500
     46 H16         -2.4520     1.9830     1.0190 h1         1 0YQ       0.076700
     47 H17         -3.6170    -0.9040     1.1170 h1         1 0YQ       0.097700
     48 H18         -3.1650    -0.8210     3.2470 ho         1 0YQ       0.517000
     49 H19         -5.7360     0.1370     1.7040 h1         1 0YQ       0.069700
     50 H20         -4.1350     1.5680     3.1040 ho         1 0YQ       0.529000
     51 H21         -5.1930     2.4880     0.0690 h2         1 0YQ       0.080700
     52 H22         -7.3220     2.3440    -0.3180 h4         1 0YQ       0.204000
     53 H23         -9.2410     1.2580    -1.6950 ha         1 0YQ       0.218000
     54 H24         -6.7160    -1.9510    -2.4170 hn         1 0YQ       0.344500
@<TRIPOS>BOND
     1     1     2 1   
     2     2     3 1   
     3     2     4 1   
     4     4     5 1   
     5     4    34 1   
     6     4    35 1   
     7     5     6 1   
     8     5    10 1   
     9     6     7 1   
    10     6    36 1   
    11     6    37 1   
    12     7     8 1   
    13     7     9 1   
    14    10    11 1   
    15    10    38 1   
    16    10    39 1   
    17    11    12 2   
    18    11    13 1   
    19    13    14 1   
    20    13    40 1   
    21    14    15 1   
    22    14    41 1   
    23    14    42 1   
    24    15    16 1   
    25    15    43 1   
    26    15    44 1   
    27    16    17 1   
    28    16    45 1   
    29    17    18 2   
    30    17    19 1   
    31    19    20 1   
    32    19    24 1   
    33    19    46 1   
    34    20    21 1   
    35    20    22 1   
    36    20    47 1   
    37    21    48 1   
    38    22    23 1   
    39    22    25 1   
    40    22    49 1   
    41    23    50 1   
    42    24    25 1   
    43    25    26 1   
    44    25    51 1   
    45    26    27 1   
    46    26    29 1   
    47    27    28 2   
    48    27    52 1   
    49    28    32 1   
    50    28    53 1   
    51    29    30 2   
    52    29    31 1   
    53    31    32 1   
    54    31    54 1   
    55    32    33 2   
@<TRIPOS>SUBSTRUCTURE
     1 0YQ         1 TEMP              0 ****  ****    0 ROOT
