@<TRIPOS>MOLECULE
0YQ
   54    55     1     0     0
SMALL
bcc


@<TRIPOS>ATOM
      1 O33          7.3960     0.9320     0.6770 o          1 0YQ      -0.866050
      2 C31          6.9750     1.5500    -0.3200 c          1 0YQ       0.917600
      3 O32          7.2060     2.7470    -0.5990 o          1 0YQ      -0.866050
      4 C30          6.0750     0.8190    -1.3410 c3         1 0YQ       0.053300
      5 N25          5.7230    -0.5680    -1.1270 n3         1 0YQ      -0.690600
      6 C26          6.8280    -1.4900    -1.2580 c3         1 0YQ       0.053300
      7 C27          7.4230    -1.6170    -2.6750 c          1 0YQ       0.917600
      8 O29          6.7390    -1.2490    -3.6480 o          1 0YQ      -0.866050
      9 O28          8.5570    -2.1400    -2.7200 o          1 0YQ      -0.866050
     10 C23          4.9180    -0.7950     0.0410 c3         1 0YQ       0.135800
     11 C22          3.5380    -0.1600    -0.0720 c          1 0YQ       0.658100
     12 O24          2.9260    -0.0680    -1.1250 o          1 0YQ      -0.585100
     13 N21          3.0310     0.2630     1.1010 ns         1 0YQ      -0.597900
     14 C20          1.7020     0.8040     1.2440 c3         1 0YQ       0.091000
     15 C19          0.6330    -0.2850     1.3370 c3         1 0YQ       0.072000
     16 N17         -0.6820     0.2690     1.5620 ns         1 0YQ      -0.579900
     17 C16         -1.5220     0.6170     0.5730 c          1 0YQ       0.664100
     18 O18         -1.2760     0.4820    -0.6110 o          1 0YQ      -0.532100
     19 C12         -2.8330     1.2080     1.0750 c5         1 0YQ       0.057100
     20 C11         -3.6180     0.2570     1.9900 c5         1 0YQ       0.075100
     21 O15         -3.2620     0.4950     3.3280 oh         1 0YQ      -0.599800
     22 C10         -5.0800     0.6330     1.6840 c5         1 0YQ       0.082100
     23 O14         -5.5310     1.6270     2.5640 oh         1 0YQ      -0.602800
     24 O13         -3.6610     1.4940    -0.0200 os         1 0YQ      -0.355600
     25 C9          -5.0070     1.2620     0.2810 c5         1 0YQ       0.313500
     26 N5          -5.6230     0.5060    -0.8010 n          1 0YQ      -0.384000
     27 C6          -6.5750     1.1040    -1.5790 cc         1 0YQ       0.068600
     28 C1          -7.1670     0.4990    -2.6210 cd         1 0YQ      -0.338200
     29 C4          -5.1930    -0.7780    -1.0740 c          1 0YQ       0.834500
     30 O8          -4.3470    -1.3420    -0.4160 o          1 0YQ      -0.621500
     31 N3          -5.8030    -1.3730    -2.1450 ns         1 0YQ      -0.601500
     32 C2          -6.7860    -0.8470    -2.9710 c          1 0YQ       0.736700
     33 O7          -7.2410    -1.5040    -3.8880 o          1 0YQ      -0.611500
     34 H2           5.1540     1.4040    -1.4400 h1         1 0YQ       0.028200
     35 H3           6.5490     0.8950    -2.3230 h1         1 0YQ       0.028200
     36 H5           7.6420    -1.2870    -0.5500 h1         1 0YQ       0.028200
     37 H6           6.4610    -2.4920    -1.0010 h1         1 0YQ       0.028200
     38 H8           4.7380    -1.8730     0.1390 h1         1 0YQ       0.026200
     39 H9           5.3940    -0.4820     0.9800 h1         1 0YQ       0.026200
     40 H10          3.5850     0.1470     1.9340 hn         1 0YQ       0.310500
     41 H11          1.6850     1.4140     2.1480 h1         1 0YQ       0.046200
     42 H12          1.4850     1.4630     0.4020 h1         1 0YQ       0.046200
     43 H13          0.6230    -0.8760     0.4230 h1         1 0YQ       0.062200
     44 H14          0.8610    -0.9600     2.1630 h1         1 0YQ       0.062200
     45 H15         -0.9580     0.4440     2.5160 hn         1 0YQ       0.303500
     46 H16         -2.6060     2.1280     1.6340 h1         1 0YQ       0.076700
     47 H17         -3.4390    -0.7810     1.7150 h1         1 0YQ       0.097700
     48 H18         -3.3810    -0.3160     3.8320 ho         1 0YQ       0.418000
     49 H19         -5.7400    -0.2410     1.7060 h1         1 0YQ       0.069700
     50 H20         -5.0270     1.5340     3.3840 ho         1 0YQ       0.430000
     51 H21         -5.5570     2.2060     0.3080 h2         1 0YQ       0.080700
     52 H22         -6.8330     2.1150    -1.3000 h4         1 0YQ       0.154000
     53 H23         -7.9160     1.0150    -3.2010 ha         1 0YQ       0.168000
     54 H24         -5.4940    -2.3160    -2.3460 hn         1 0YQ       0.344500
@<TRIPOS>BOND
     1     1     2 1   
     2     2     3 1   
     3     2     4 1   
     4     4     5 1   
     5     4    34 1   
     6     4    35 1   
     7     5     6 1   
     8     5    10 1   
     9     6     7 1   
    10     6    36 1   
    11     6    37 1   
    12     7     8 1   
    13     7     9 1   
    14    10    11 1   
    15    10    38 1   
    16    10    39 1   
    17    11    12 2   
    18    11    13 1   
    19    13    14 1   
    20    13    40 1   
    21    14    15 1   
    22    14    41 1   
    23    14    42 1   
    24    15    16 1   
    25    15    43 1   
    26    15    44 1   
    27    16    17 1   
    28    16    45 1   
    29    17    18 2   
    30    17    19 1   
    31    19    20 1   
    32    19    24 1   
    33    19    46 1   
    34    20    21 1   
    35    20    22 1   
    36    20    47 1   
    37    21    48 1   
    38    22    23 1   
    39    22    25 1   
    40    22    49 1   
    41    23    50 1   
    42    24    25 1   
    43    25    26 1   
    44    25    51 1   
    45    26    27 1   
    46    26    29 1   
    47    27    28 2   
    48    27    52 1   
    49    28    32 1   
    50    28    53 1   
    51    29    30 2   
    52    29    31 1   
    53    31    32 1   
    54    31    54 1   
    55    32    33 2   
@<TRIPOS>SUBSTRUCTURE
     1 0YQ         1 TEMP              0 ****  ****    0 ROOT
