@<TRIPOS>MOLECULE
0YR
   23    22     1     0     0
SMALL
bcc


@<TRIPOS>ATOM
      1 CAG         -2.9320     0.7360    -0.5510 c3         1 0YR       0.108400
      2 NAH          2.6580     0.5740     0.7330 ns         1 0YR      -0.447400
      3 CAI          1.9740    -0.1100    -0.1910 c          1 0YR       0.647100
      4 CAJ         -1.8420     0.1650     0.3420 c3         1 0YR       0.119100
      5 CAK          0.6080    -0.6090     0.2770 c3         1 0YR       0.047100
      6 CAL         -0.4770     0.2830    -0.3610 c3         1 0YR       0.076100
      7 OAB         -4.1320     0.8140     0.1810 oh         1 0YR      -0.583800
      8 OAD         -2.1450    -1.1390     0.7730 oh         1 0YR      -0.564800
      9 OAF         -0.0680     1.6290    -0.4130 oh         1 0YR      -0.578800
     10 OAE          0.4670    -1.9570    -0.0800 oh         1 0YR      -0.568800
     11 OAC          3.9270     0.9940     0.4800 oh         1 0YR      -0.377100
     12 H1          -2.6150     1.7200    -0.9170 h1         1 0YR       0.027700
     13 H2          -3.0350     0.0860    -1.4330 h1         1 0YR       0.027700
     14 H3           2.3740     0.6240     1.7010 hn         1 0YR       0.338500
     15 H4          -1.7900     0.7650     1.2600 h1         1 0YR       0.076700
     16 H5           0.5310    -0.5600     1.3690 h1         1 0YR       0.087700
     17 H6          -0.5780    -0.0330    -1.4080 h1         1 0YR       0.086700
     18 H7          -4.7900     1.2480    -0.3690 ho         1 0YR       0.406000
     19 H8          -2.0870    -1.7380     0.0210 ho         1 0YR       0.409000
     20 H9          -0.0700     1.9950     0.4790 ho         1 0YR       0.403000
     21 H10          0.7070    -2.0480    -1.0100 ho         1 0YR       0.425000
     22 H11          3.8560     1.9130     0.1890 ho         1 0YR       0.407000
     23 OAA          2.3690    -0.3310    -1.3230 o          1 0YR      -0.571100
@<TRIPOS>BOND
     1     1     4 1   
     2     1     7 1   
     3     1    12 1   
     4     1    13 1   
     5     2     3 1   
     6     2    11 1   
     7     2    14 1   
     8     3     5 1   
     9     3    23 2   
    10     4     6 1   
    11     4     8 1   
    12     4    15 1   
    13     5     6 1   
    14     5    10 1   
    15     5    16 1   
    16     6     9 1   
    17     6    17 1   
    18     7    18 1   
    19     8    19 1   
    20     9    20 1   
    21    10    21 1   
    22    11    22 1   
@<TRIPOS>SUBSTRUCTURE
     1 0YR         1 TEMP              0 ****  ****    0 ROOT
