@<TRIPOS>MOLECULE
0YR
   23    22     1     0     0
SMALL
No Charge or Current Charge


@<TRIPOS>ATOM
      1 CAG         -3.0890     0.8940    -0.5010 c3         1 0YR       0.131600
      2 NAH          2.8030     0.6300     0.5150 ns         1 0YR      -0.380400
      3 CAI          1.9920    -0.1690    -0.2890 c          1 0YR       0.580100
      4 CAJ         -1.9770     0.0700     0.2240 c3         1 0YR       0.142300
      5 CAK          0.5870    -0.5270     0.2960 c3         1 0YR       0.070300
      6 CAL         -0.5440     0.3290    -0.3670 c3         1 0YR       0.099300
      7 OAB         -4.3670     0.7520     0.1530 oh         1 0YR      -0.706000
      8 OAD         -2.2790    -1.3370     0.1470 oh         1 0YR      -0.687000
      9 OAF         -0.2090     1.7300    -0.2560 oh         1 0YR      -0.701000
     10 OAE          0.3010    -1.9510     0.1410 oh         1 0YR      -0.691000
     11 OAC          4.2150     0.7850     0.2290 oh         1 0YR      -0.416100
     12 H1          -2.8030     1.9540    -0.5160 h1         1 0YR       0.027700
     13 H2          -3.1560     0.5610    -1.5460 h1         1 0YR       0.027700
     14 H3           2.5100     0.8540     1.4650 hn         1 0YR       0.338500
     15 H4          -1.9640     0.3810     1.2790 h1         1 0YR       0.076700
     16 H5           0.6150    -0.2790     1.3660 h1         1 0YR       0.087700
     17 H6          -0.5750     0.0560    -1.4320 h1         1 0YR       0.086700
     18 H7          -5.0320     1.2170    -0.4070 ho         1 0YR       0.505000
     19 H8          -1.3890    -1.7860     0.1990 ho         1 0YR       0.508000
     20 H9          -0.4380     2.0390     0.6520 ho         1 0YR       0.502000
     21 H10          0.9760    -2.3190    -0.4850 ho         1 0YR       0.524000
     22 H11          4.3500     1.7620     0.2420 ho         1 0YR       0.446000
     23 OAA          2.3820    -0.6240    -1.3600 o          1 0YR      -0.571100
@<TRIPOS>BOND
     1     1     4 1   
     2     1     7 1   
     3     1    12 1   
     4     1    13 1   
     5     2     3 1   
     6     2    11 1   
     7     2    14 1   
     8     3     5 1   
     9     3    23 2   
    10     4     6 1   
    11     4     8 1   
    12     4    15 1   
    13     5     6 1   
    14     5    10 1   
    15     5    16 1   
    16     6     9 1   
    17     6    17 1   
    18     7    18 1   
    19     8    19 1   
    20     9    20 1   
    21    10    21 1   
    22    11    22 1   
@<TRIPOS>SUBSTRUCTURE
     1 0YR         1 TEMP              0 ****  ****    0 ROOT
