@<TRIPOS>MOLECULE
0YS
   50    51     1     0     0
SMALL
abcg2


@<TRIPOS>ATOM
      1 O7          -0.2980     5.0110    -0.5230 o          1 0YS      -0.751000
      2 C17          0.8350     4.6410    -0.1670 c          1 0YS       0.715000
      3 O8           1.8210     5.3610     0.0830 o          1 0YS      -0.751000
      4 C9           1.0880     3.1210    -0.0420 c3         1 0YS      -0.034300
      5 N1          -0.1240     2.3440    -0.1810 ns         1 0YS      -0.445900
      6 C10         -0.6590     1.5890     0.7850 c          1 0YS       0.607700
      7 C11         -1.7450     0.6520     0.3620 ca         1 0YS      -0.140600
      8 C16         -1.8260     0.1490    -0.9330 ca         1 0YS      -0.015500
      9 C15         -2.7610    -0.8140    -1.2480 ca         1 0YS       0.064000
     10 CL1         -2.8180    -1.4680    -2.8440 cl         1 0YS      -0.238500
     11 C14         -3.6500    -1.3090    -0.2970 ca         1 0YS       0.171100
     12 O6          -4.5210    -2.2450    -0.6630 oh         1 0YS      -0.522100
     13 C13         -3.5620    -0.7780     0.9910 ca         1 0YS       0.064000
     14 CL          -4.6650    -1.3660     2.1920 cl         1 0YS      -0.238500
     15 C12         -2.6180     0.1700     1.3280 ca         1 0YS      -0.015500
     16 O5          -0.2800     1.6030     1.9520 o          1 0YS      -0.618100
     17 C8           2.1310     2.6660    -1.0740 c3         1 0YS      -0.060400
     18 C7           2.3530     1.1630    -1.1170 c5         1 0YS       0.171500
     19 C6           3.4490     0.7260    -2.0800 c5         1 0YS      -0.067400
     20 C5           3.8580    -0.6560    -1.5660 c5         1 0YS      -0.053400
     21 N2           2.8510     0.6380     0.1450 n7         1 0YS      -0.846400
     22 C3           3.4410    -0.6780    -0.0730 c5         1 0YS       0.071200
     23 C4           4.7050    -0.9020     0.8040 c          1 0YS       0.751000
     24 O4           5.0430    -0.0220     1.6140 o          1 0YS      -0.754000
     25 O3           5.3120    -1.9780     0.5980 o          1 0YS      -0.754000
     26 C2           2.4710    -1.8310     0.3050 c3         1 0YS       0.198300
     27 O2           2.4000    -1.8080     1.7120 oh         1 0YS      -0.713000
     28 C            1.0410    -1.7580    -0.2800 c3         1 0YS      -0.036500
     29 N            1.0360    -1.8580    -1.7290 n8         1 0YS      -0.979200
     30 C1           0.0530    -2.7680     0.3840 c          1 0YS       0.682000
     31 O            0.1690    -2.9630     1.6270 o          1 0YS      -0.737500
     32 O1          -0.8030    -3.2910    -0.3390 o          1 0YS      -0.737500
     33 H2           1.4800     2.9210     0.9560 h1         1 0YS       0.093700
     34 H3          -0.5940     2.4000    -1.0700 hn         1 0YS       0.298500
     35 H4          -1.1290     0.4600    -1.7000 ha         1 0YS       0.146000
     36 H5          -5.0820    -2.5120     0.0780 ho         1 0YS       0.460000
     37 H6          -2.5630     0.5320     2.3460 ha         1 0YS       0.146000
     38 H7           1.8220     2.9990    -2.0720 hc         1 0YS       0.032700
     39 H8           3.0740     3.1690    -0.8490 hc         1 0YS       0.032700
     40 H9           1.4210     0.6800    -1.4390 h1         1 0YS       0.009700
     41 H10          3.1080     0.7140    -3.1160 hc         1 0YS       0.007700
     42 H11          4.2900     1.4240    -2.0200 hc         1 0YS       0.007700
     43 H12          3.3530    -1.4370    -2.1270 hc         1 0YS       0.025700
     44 H13          4.9280    -0.8270    -1.6850 hc         1 0YS       0.025700
     45 H14          2.1520     0.6130     0.8760 hn         1 0YS       0.433000
     46 H17          2.9260    -2.7720    -0.0500 h1         1 0YS       0.014700
     47 H18          1.5420    -2.2660     1.9250 ho         1 0YS       0.488000
     48 H19          0.6470    -0.7680    -0.0160 h1         1 0YS       0.053700
     49 H20          1.5180    -2.7100    -1.9970 hn         1 0YS       0.369000
     50 H21          0.0760    -2.0220    -2.0080 hn         1 0YS       0.369000
@<TRIPOS>BOND
     1     1     2 1   
     2     2     3 1   
     3     2     4 1   
     4     4     5 1   
     5     4    17 1   
     6     4    33 1   
     7     5     6 1   
     8     5    34 1   
     9     6     7 1   
    10     6    16 2   
    11     7     8 ar  
    12     7    15 ar  
    13     8     9 ar  
    14     8    35 1   
    15     9    10 1   
    16     9    11 ar  
    17    11    12 1   
    18    11    13 ar  
    19    12    36 1   
    20    13    14 1   
    21    13    15 ar  
    22    15    37 1   
    23    17    18 1   
    24    17    38 1   
    25    17    39 1   
    26    18    19 1   
    27    18    21 1   
    28    18    40 1   
    29    19    20 1   
    30    19    41 1   
    31    19    42 1   
    32    20    22 1   
    33    20    43 1   
    34    20    44 1   
    35    21    22 1   
    36    21    45 1   
    37    22    23 1   
    38    22    26 1   
    39    23    24 1   
    40    23    25 1   
    41    26    27 1   
    42    26    28 1   
    43    26    46 1   
    44    27    47 1   
    45    28    29 1   
    46    28    30 1   
    47    28    48 1   
    48    29    49 1   
    49    29    50 1   
    50    30    31 1   
    51    30    32 1   
@<TRIPOS>SUBSTRUCTURE
     1 0YS         1 TEMP              0 ****  ****    0 ROOT
