@<TRIPOS>MOLECULE
0YS
   50    51     1     0     0
SMALL
No Charge or Current Charge


@<TRIPOS>ATOM
      1 O7           0.1060     5.1420    -1.0850 o          1 0YS      -0.751000
      2 C17          0.7620     4.6930    -0.1530 c          1 0YS       0.715000
      3 O8           1.1560     5.3840     0.7760 o          1 0YS      -0.751000
      4 C9           0.9870     3.1530    -0.0750 c3         1 0YS      -0.034300
      5 N1          -0.2930     2.4310    -0.3020 ns         1 0YS      -0.445900
      6 C10         -0.6750     1.2700     0.3410 c          1 0YS       0.607700
      7 C11         -1.9890     0.6500    -0.0800 ca         1 0YS      -0.140600
      8 C16         -2.8050     1.2150    -1.0910 ca         1 0YS      -0.015500
      9 C15         -4.0190     0.6060    -1.4570 ca         1 0YS       0.064000
     10 Cl1         -4.9970     1.3530    -2.7250 cl         1 0YS      -0.238500
     11 C14         -4.4410    -0.5810    -0.8200 ca         1 0YS       0.171100
     12 O6          -5.6240    -1.1810    -1.1720 oh         1 0YS      -0.522100
     13 C13         -3.6330    -1.1480     0.1860 ca         1 0YS       0.064000
     14 Cl          -4.1330    -2.6320     1.0030 cl         1 0YS      -0.238500
     15 C12         -2.4210    -0.5390     0.5510 ca         1 0YS      -0.015500
     16 O5           0.0230     0.7650     1.2100 o          1 0YS      -0.618100
     17 C8           2.1100     2.6990    -1.0480 c3         1 0YS      -0.060400
     18 C7           2.3860     1.1740    -1.0930 c5         1 0YS       0.171500
     19 C6           3.5430     0.7490    -2.0260 c5         1 0YS      -0.067400
     20 C5           3.6170    -0.7420    -1.6310 c5         1 0YS      -0.053400
     21 N2           2.7810     0.6160     0.2170 n7         1 0YS      -0.846400
     22 C3           3.6030    -0.6530    -0.0550 c5         1 0YS       0.071200
     23 C4           5.1550    -0.5510     0.3730 c          1 0YS       0.751000
     24 O4           5.5890     0.4570     0.9270 o          1 0YS      -0.754000
     25 O3           5.9170    -1.4810     0.1230 o          1 0YS      -0.754000
     26 C2           3.0180    -1.9250     0.6950 c3         1 0YS       0.198300
     27 O2           3.0610    -1.6870     2.1130 oh         1 0YS      -0.713000
     28 C            1.5730    -2.4250     0.2620 c3         1 0YS      -0.036500
     29 N            1.6310    -3.3150    -0.9680 n8         1 0YS      -0.979200
     30 C1           0.7150    -3.0300     1.4550 c          1 0YS       0.682000
     31 O            0.6060    -2.3820     2.4860 o          1 0YS      -0.737500
     32 O1           0.2160    -4.1390     1.3170 o          1 0YS      -0.737500
     33 H2           1.3210     2.9460     0.9500 h1         1 0YS       0.093700
     34 H3          -0.9300     2.8160    -0.9870 hn         1 0YS       0.298500
     35 H4          -2.5160     2.1260    -1.6080 ha         1 0YS       0.146000
     36 H5          -5.7290    -1.9840    -0.6160 ho         1 0YS       0.460000
     37 H6          -1.8170    -0.9980     1.3300 ha         1 0YS       0.146000
     38 H7           1.8480     3.0350    -2.0590 hc         1 0YS       0.032700
     39 H8           3.0320     3.2310    -0.7820 hc         1 0YS       0.032700
     40 H9           1.4640     0.6770    -1.4270 h1         1 0YS       0.009700
     41 H10          3.3030     0.8900    -3.0860 hc         1 0YS       0.007700
     42 H11          4.4770     1.2850    -1.8160 hc         1 0YS       0.007700
     43 H12          2.7480    -1.2640    -2.0400 hc         1 0YS       0.025700
     44 H13          4.5010    -1.2410    -2.0420 hc         1 0YS       0.025700
     45 H14          1.9250     0.3930     0.7460 hn         1 0YS       0.433000
     46 H17          3.6980    -2.7610     0.4840 h1         1 0YS       0.014700
     47 H18          2.1230    -1.8390     2.4250 ho         1 0YS       0.488000
     48 H19          1.0130    -1.5300    -0.0400 h1         1 0YS       0.053700
     49 H20          2.0390    -4.2170    -0.6990 hn         1 0YS       0.369000
     50 H21          0.6720    -3.5720    -1.2280 hn         1 0YS       0.369000
@<TRIPOS>BOND
     1     1     2 1   
     2     2     3 1   
     3     2     4 1   
     4     4     5 1   
     5     4    17 1   
     6     4    33 1   
     7     5     6 1   
     8     5    34 1   
     9     6     7 1   
    10     6    16 2   
    11     7     8 ar  
    12     7    15 ar  
    13     8     9 ar  
    14     8    35 1   
    15     9    10 1   
    16     9    11 ar  
    17    11    12 1   
    18    11    13 ar  
    19    12    36 1   
    20    13    14 1   
    21    13    15 ar  
    22    15    37 1   
    23    17    18 1   
    24    17    38 1   
    25    17    39 1   
    26    18    19 1   
    27    18    21 1   
    28    18    40 1   
    29    19    20 1   
    30    19    41 1   
    31    19    42 1   
    32    20    22 1   
    33    20    43 1   
    34    20    44 1   
    35    21    22 1   
    36    21    45 1   
    37    22    23 1   
    38    22    26 1   
    39    23    24 1   
    40    23    25 1   
    41    26    27 1   
    42    26    28 1   
    43    26    46 1   
    44    27    47 1   
    45    28    29 1   
    46    28    30 1   
    47    28    48 1   
    48    29    49 1   
    49    29    50 1   
    50    30    31 1   
    51    30    32 1   
@<TRIPOS>SUBSTRUCTURE
     1 0YS         1 TEMP              0 ****  ****    0 ROOT
