@<TRIPOS>MOLECULE
0YT
   30    30     1     0     0
SMALL
No Charge or Current Charge


@<TRIPOS>ATOM
      1 C1         -21.5610    27.2590     6.0640 c6         1 0YT       0.312300
      2 C2         -22.9890    27.7670     5.6860 c6         1 0YT       0.111700
      3 N2         -23.1490    29.2220     5.9460 ns         1 0YT      -0.497900
      4 C7         -22.9570    30.2260     5.0270 c          1 0YT       0.616100
      5 O7         -22.6680    30.0080     3.8590 o          1 0YT      -0.587100
      6 C8         -23.1510    31.6340     5.5730 c3         1 0YT      -0.181100
      7 C3         -24.0640    26.9430     6.4650 c6         1 0YT       0.160300
      8 O3         -25.3800    27.4770     6.2450 oh         1 0YT      -0.640000
      9 C4         -24.0740    25.4300     6.0770 c6         1 0YT       0.136300
     10 O4         -25.1850    24.7860     6.7380 oh         1 0YT      -0.675000
     11 C5         -22.7280    24.7330     6.4440 c6         1 0YT       0.055300
     12 C6         -22.7340    23.1950     6.1750 c3         1 0YT       0.174600
     13 O6         -23.1140    22.8650     4.8290 oh         1 0YT      -0.652000
     14 S5         -21.2740    25.5110     5.5850 ss         1 0YT      -0.448000
     15 H3         -23.1350    27.5890     4.6110 h1         1 0YT       0.125700
     16 H4         -23.4250    29.5120     6.8750 hn         1 0YT       0.304500
     17 H5         -23.0000    32.4070     4.8110 hc         1 0YT       0.059033
     18 H6         -24.1450    31.7050     6.0300 hc         1 0YT       0.059033
     19 H7         -22.4880    31.7780     6.4330 hc         1 0YT       0.059033
     20 H8         -23.8310    27.0150     7.5380 h1         1 0YT       0.028700
     21 H9         -25.9800    26.7360     6.4940 ho         1 0YT       0.460000
     22 H10        -24.2020    25.3630     4.9850 h1         1 0YT       0.084700
     23 H11        -25.3030    23.9100     6.3050 ho         1 0YT       0.458000
     24 H12        -22.5560    24.8680     7.5220 h1         1 0YT       0.074700
     25 H13        -21.7310    22.8050     6.3920 h1         1 0YT       0.033200
     26 H14        -23.4230    22.7180     6.8860 h1         1 0YT       0.033200
     27 H15        -22.9380    21.9050     4.7080 ho         1 0YT       0.447000
     28 O1         -20.5370    28.0250     5.4400 oh         1 0YT      -0.605000
     29 H1         -21.4370    27.3090     7.1560 h2         1 0YT       0.037700
     30 H2         -19.7380    27.4590     5.4710 ho         1 0YT       0.456000
@<TRIPOS>BOND
     1     1     2 1   
     2     1    14 1   
     3     1    28 1   
     4     1    29 1   
     5     2     3 1   
     6     2     7 1   
     7     2    15 1   
     8     3     4 1   
     9     3    16 1   
    10     4     5 2   
    11     4     6 1   
    12     6    17 1   
    13     6    18 1   
    14     6    19 1   
    15     7     8 1   
    16     7     9 1   
    17     7    20 1   
    18     8    21 1   
    19     9    10 1   
    20     9    11 1   
    21     9    22 1   
    22    10    23 1   
    23    11    12 1   
    24    11    14 1   
    25    11    24 1   
    26    12    13 1   
    27    12    25 1   
    28    12    26 1   
    29    13    27 1   
    30    28    30 1   
@<TRIPOS>SUBSTRUCTURE
     1 0YT         1 TEMP              0 ****  ****    0 ROOT
