@<TRIPOS>MOLECULE
0YT
   30    30     1     0     0
SMALL
bcc


@<TRIPOS>ATOM
      1 C1         -21.5460    27.1910     5.9490 c6         1 0YT       0.241200
      2 C2         -22.9430    27.7130     5.6150 c6         1 0YT       0.111700
      3 N2         -23.0360    29.1060     5.9770 ns         1 0YT      -0.564900
      4 C7         -23.1230    30.1210     5.0940 c          1 0YT       0.683100
      5 O7         -23.1780    29.9580     3.8850 o          1 0YT      -0.587100
      6 C8         -23.1720    31.4900     5.7320 c3         1 0YT      -0.181100
      7 C3         -24.0440    26.9200     6.3260 c6         1 0YT       0.137100
      8 O3         -25.2680    27.4930     5.9480 oh         1 0YT      -0.577800
      9 C4         -24.0360    25.4220     6.0020 c6         1 0YT       0.113100
     10 O4         -25.1370    24.8800     6.7030 oh         1 0YT      -0.612800
     11 C5         -22.7270    24.7580     6.4280 c6         1 0YT       0.007400
     12 C6         -22.7220    23.2470     6.2980 c3         1 0YT       0.151400
     13 O6         -22.9370    22.9020     4.9520 oh         1 0YT      -0.589800
     14 S5         -21.3780    25.4450     5.4180 ss         1 0YT      -0.352200
     15 H3         -23.0880    27.6380     4.5350 h1         1 0YT       0.125700
     16 H4         -22.9900    29.3320     6.9600 hn         1 0YT       0.304500
     17 H5         -23.1060    32.2640     4.9730 hc         1 0YT       0.059033
     18 H6         -24.1070    31.6180     6.2800 hc         1 0YT       0.059033
     19 H7         -22.3580    31.6240     6.4460 hc         1 0YT       0.059033
     20 H8         -23.8840    27.0200     7.4150 h1         1 0YT       0.028700
     21 H9         -25.9650    26.9510     6.3340 ho         1 0YT       0.421000
     22 H10        -24.1620    25.2990     4.9200 h1         1 0YT       0.084700
     23 H11        -25.4720    24.1190     6.2190 ho         1 0YT       0.419000
     24 H12        -22.5220    24.9900     7.4800 h1         1 0YT       0.074700
     25 H13        -21.7620    22.8670     6.6700 h1         1 0YT       0.033200
     26 H14        -23.4980    22.8410     6.9580 h1         1 0YT       0.033200
     27 H15        -22.9830    21.9430     4.8880 ho         1 0YT       0.408000
     28 O1         -20.6110    27.9510     5.2610 oh         1 0YT      -0.542800
     29 H1         -21.3960    27.2280     7.0370 h2         1 0YT       0.037700
     30 H2         -19.7470    27.8290     5.6670 ho         1 0YT       0.417000
@<TRIPOS>BOND
     1     1     2 1   
     2     1    14 1   
     3     1    28 1   
     4     1    29 1   
     5     2     3 1   
     6     2     7 1   
     7     2    15 1   
     8     3     4 1   
     9     3    16 1   
    10     4     5 2   
    11     4     6 1   
    12     6    17 1   
    13     6    18 1   
    14     6    19 1   
    15     7     8 1   
    16     7     9 1   
    17     7    20 1   
    18     8    21 1   
    19     9    10 1   
    20     9    11 1   
    21     9    22 1   
    22    10    23 1   
    23    11    12 1   
    24    11    14 1   
    25    11    24 1   
    26    12    13 1   
    27    12    25 1   
    28    12    26 1   
    29    13    27 1   
    30    28    30 1   
@<TRIPOS>SUBSTRUCTURE
     1 0YT         1 TEMP              0 ****  ****    0 ROOT
