@<TRIPOS>MOLECULE
0YU
   58    62     1     0     0
SMALL
No Charge or Current Charge


@<TRIPOS>ATOM
      1 NAU         -9.2000     3.0560    -0.1080 na         1 0YU      -0.291500
      2 CAQ        -10.5770     3.1520    -0.1690 cc         1 0YU      -0.231000
      3 CAS        -11.0250     1.8580    -0.2060 cd         1 0YU       0.237900
      4 NAY         -9.9610     0.9780    -0.1700 nd         1 0YU      -0.669000
      5 CBC         -8.8660     1.7220    -0.1110 cc         1 0YU       0.458000
      6 CBG         -7.4880     1.2070    -0.0550 ca         1 0YU      -0.140500
      7 CAL         -6.3810     2.0810     0.0130 ca         1 0YU      -0.063500
      8 CAH         -5.0710     1.5750     0.0660 ca         1 0YU      -0.146500
      9 CAK         -7.2430    -0.1840    -0.0650 ca         1 0YU      -0.063500
     10 CAG         -5.9320    -0.6880    -0.0120 ca         1 0YU      -0.146500
     11 CBE         -4.8290     0.1900     0.0490 ca         1 0YU      -0.016000
     12 NAW         -3.4750    -0.2450     0.1100 ns         1 0YU      -0.128000
     13 CBA         -2.8840    -1.4970    -0.0230 c          1 0YU       0.629700
     14 OAB         -3.5190    -2.5110    -0.2920 o          1 0YU      -0.542100
     15 CBI         -1.3640    -1.5100     0.1060 ca         1 0YU      -0.081600
     16 CBJ         -0.6460    -2.6800     0.4930 ca         1 0YU      -0.143200
     17 CAO          0.7660    -2.6670     0.5380 ca         1 0YU      -0.005000
     18 NBK         -1.3410    -3.9290     0.9160 no         1 0YU       0.695200
     19 OAD         -0.9310    -4.9960     0.4400 o          1 0YU      -0.378500
     20 OAC         -2.0810    -3.8570     1.9050 o          1 0YU      -0.378500
     21 CAN         -0.6170    -0.3470    -0.2040 ca         1 0YU      -0.105000
     22 CAM          0.7860    -0.3420    -0.1490 ca         1 0YU      -0.056000
     23 CBH          1.5000    -1.5050     0.2200 ca         1 0YU      -0.149600
     24 CAZ          3.0160    -1.5420     0.2880 c          1 0YU       0.618700
     25 OAA          3.6060    -2.5660     0.6130 o          1 0YU      -0.552100
     26 NAV          3.6680    -0.3540    -0.0290 ns         1 0YU      -0.140000
     27 CBD          5.0450    -0.0040    -0.1010 ca         1 0YU      -0.014000
     28 CAF          5.3620     1.3490    -0.3140 ca         1 0YU      -0.153000
     29 CAJ          6.7000     1.7730    -0.4000 ca         1 0YU      -0.051000
     30 CAE          6.0990    -0.9360     0.0050 ca         1 0YU      -0.153000
     31 CAI          7.4370    -0.5150    -0.0820 ca         1 0YU      -0.051000
     32 CBF          7.7580     0.8480    -0.2670 ca         1 0YU      -0.151900
     33 CBB          9.1850     1.2900    -0.3890 ce         1 0YU       0.617800
     34 NAX         10.1490     0.4590    -0.5730 n2         1 0YU      -0.621900
     35 CAR         11.3790     1.2470    -0.3140 c5         1 0YU       0.086800
     36 CAP         10.8890     2.4670     0.5200 c5         1 0YU       0.150800
     37 NAT          9.5100     2.5830    -0.0010 nu         1 0YU      -0.891400
     38 H1          -8.5390     3.8210    -0.0690 hn         1 0YU       0.349000
     39 H2         -11.1170     4.0910    -0.1810 h4         1 0YU       0.158000
     40 H3         -12.0500     1.5110    -0.2570 h4         1 0YU       0.039100
     41 H5          -6.5210     3.1600     0.0260 ha         1 0YU       0.123500
     42 H6          -4.2360     2.2710     0.1180 ha         1 0YU       0.130500
     43 H7          -8.0730    -0.8860    -0.1120 ha         1 0YU       0.123500
     44 H8          -5.8000    -1.7650    -0.0110 ha         1 0YU       0.130500
     45 H9          -2.8200     0.5000     0.3070 hn         1 0YU       0.155000
     46 H10          1.2940    -3.5710     0.8420 ha         1 0YU       0.175000
     47 H11         -1.1130     0.5660    -0.5250 ha         1 0YU       0.138000
     48 H12          1.3010     0.5810    -0.4080 ha         1 0YU       0.130000
     49 H13          3.0470     0.4100    -0.2540 hn         1 0YU       0.152000
     50 H14          4.5660     2.0840    -0.4160 ha         1 0YU       0.129500
     51 H15          6.9050     2.8260    -0.5840 ha         1 0YU       0.131500
     52 H16          5.9060    -1.9950     0.1470 ha         1 0YU       0.129500
     53 H17          8.2280    -1.2590     0.0010 ha         1 0YU       0.131500
     54 H21         12.1310     0.6600     0.2290 h1         1 0YU       0.065200
     55 H22         11.8220     1.5740    -1.2650 h1         1 0YU       0.065200
     56 H23         10.9010     2.2460     1.5980 h1         1 0YU       0.048200
     57 H24         11.5020     3.3610     0.3400 h1         1 0YU       0.048200
     58 H25          8.7830     3.0300     0.5540 hn         1 0YU       0.464000
@<TRIPOS>BOND
     1     1     2 1   
     2     1     5 1   
     3     1    38 1   
     4     2     3 2   
     5     2    39 1   
     6     3     4 1   
     7     3    40 1   
     8     4     5 2   
     9     5     6 1   
    10     6     7 ar  
    11     6     9 ar  
    12     7     8 ar  
    13     7    41 1   
    14     8    11 ar  
    15     8    42 1   
    16     9    10 ar  
    17     9    43 1   
    18    10    11 ar  
    19    10    44 1   
    20    11    12 1   
    21    12    13 1   
    22    12    45 1   
    23    13    14 2   
    24    13    15 1   
    25    15    16 ar  
    26    15    21 ar  
    27    16    17 ar  
    28    16    18 1   
    29    17    23 ar  
    30    17    46 1   
    31    18    19 1   
    32    18    20 1   
    33    21    22 ar  
    34    21    47 1   
    35    22    23 ar  
    36    22    48 1   
    37    23    24 1   
    38    24    25 2   
    39    24    26 1   
    40    26    27 1   
    41    26    49 1   
    42    27    28 ar  
    43    27    30 ar  
    44    28    29 ar  
    45    28    50 1   
    46    29    32 ar  
    47    29    51 1   
    48    30    31 ar  
    49    30    52 1   
    50    31    32 ar  
    51    31    53 1   
    52    32    33 1   
    53    33    34 2   
    54    33    37 1   
    55    34    35 1   
    56    35    36 1   
    57    35    54 1   
    58    35    55 1   
    59    36    37 1   
    60    36    56 1   
    61    36    57 1   
    62    37    58 1   
@<TRIPOS>SUBSTRUCTURE
     1 0YU         1 TEMP              0 ****  ****    0 ROOT
