@<TRIPOS>MOLECULE
0YU
   58    62     1     0     0
SMALL
bcc


@<TRIPOS>ATOM
      1 NAU         -9.3600     2.6380     0.3020 na         1 0YU      -0.291900
      2 CAQ        -10.6920     2.6830     0.0220 cc         1 0YU      -0.263600
      3 CAS        -10.9550     1.5200    -0.6470 cd         1 0YU       0.303200
      4 NAY         -9.8170     0.7840    -0.7740 nd         1 0YU      -0.669000
      5 CBC         -8.8650     1.4790    -0.1930 cc         1 0YU       0.458000
      6 CBG         -7.4690     1.0690    -0.0890 ca         1 0YU      -0.140500
      7 CAL         -6.5110     1.8290     0.5830 ca         1 0YU      -0.081500
      8 CAH         -5.1980     1.4060     0.6580 ca         1 0YU      -0.164500
      9 CAK         -7.0570    -0.1270    -0.6760 ca         1 0YU      -0.081500
     10 CAG         -5.7450    -0.5610    -0.6070 ca         1 0YU      -0.164500
     11 CBE         -4.7950     0.2090     0.0650 ca         1 0YU       0.076600
     12 NAW         -3.4420    -0.1260     0.1810 ns         1 0YU      -0.454100
     13 CBA         -2.8090    -1.2470    -0.2200 c          1 0YU       0.696700
     14 OAB         -3.3200    -2.2020    -0.7690 o          1 0YU      -0.542100
     15 CBI         -1.3200    -1.2010    -0.0110 ca         1 0YU      -0.081600
     16 CBJ         -0.6360    -2.1040     0.7980 ca         1 0YU      -0.143200
     17 CAO          0.7420    -2.1550     0.8430 ca         1 0YU      -0.023000
     18 NBK         -1.3850    -3.0010     1.6670 no         1 0YU       0.315200
     19 OAD         -0.8690    -4.0440     1.9820 o          1 0YU      -0.188500
     20 OAC         -2.4740    -2.6330     2.0360 o          1 0YU      -0.188500
     21 CAN         -0.5700    -0.3230    -0.7770 ca         1 0YU      -0.123000
     22 CAM          0.8160    -0.3380    -0.7230 ca         1 0YU      -0.074000
     23 CBH          1.4800    -1.2490     0.0890 ca         1 0YU      -0.149600
     24 CAZ          2.9730    -1.3430     0.1570 c          1 0YU       0.685700
     25 OAA          3.5180    -2.4060     0.3830 o          1 0YU      -0.552100
     26 NAV          3.6220    -0.1710    -0.0410 ns         1 0YU      -0.466100
     27 CBD          4.9990     0.0640    -0.0670 ca         1 0YU       0.078600
     28 CAF          5.4130     1.3890     0.0790 ca         1 0YU      -0.171000
     29 CAJ          6.7550     1.7170     0.0420 ca         1 0YU      -0.069000
     30 CAE          5.9600    -0.9300    -0.2610 ca         1 0YU      -0.171000
     31 CAI          7.3000    -0.5870    -0.3010 ca         1 0YU      -0.069000
     32 CBF          7.7210     0.7310    -0.1430 ca         1 0YU      -0.151900
     33 CBB          9.1530     1.0590    -0.1900 ce         1 0YU       0.617800
     34 NAX         10.0370     0.2880    -0.6970 n2         1 0YU      -0.621900
     35 CAR         11.3150     0.9810    -0.5810 c5         1 0YU       0.086800
     36 CAP         11.0560     2.1740     0.3580 c5         1 0YU       0.150800
     37 NAT          9.6020     2.2690     0.2890 nu         1 0YU      -0.836200
     38 H1          -8.8520     3.3590     0.7890 hn         1 0YU       0.298700
     39 H2         -11.3150     3.5100     0.3150 h4         1 0YU       0.176000
     40 H3         -11.9010     1.1820    -1.0400 h4         1 0YU       0.039100
     41 H5          -6.7690     2.7640     1.0620 ha         1 0YU       0.141500
     42 H6          -4.4760     2.0150     1.1880 ha         1 0YU       0.148500
     43 H7          -7.7800    -0.7340    -1.2040 ha         1 0YU       0.141500
     44 H8          -5.4780    -1.4920    -1.0790 ha         1 0YU       0.148500
     45 H9          -2.8760     0.5550     0.6680 hn         1 0YU       0.321500
     46 H10          1.2460    -2.8690     1.4800 ha         1 0YU       0.193000
     47 H11         -1.0680     0.3730    -1.4400 ha         1 0YU       0.156000
     48 H12          1.3630     0.3530    -1.3510 ha         1 0YU       0.148000
     49 H13          3.0550     0.6640    -0.0600 hn         1 0YU       0.318500
     50 H14          4.6770     2.1720     0.2200 ha         1 0YU       0.147500
     51 H15          7.0370     2.7570     0.1470 ha         1 0YU       0.149500
     52 H16          5.6810    -1.9630    -0.3880 ha         1 0YU       0.147500
     53 H17          8.0370    -1.3640    -0.4540 ha         1 0YU       0.149500
     54 H21         12.0950     0.3140    -0.2110 h1         1 0YU       0.065200
     55 H22         11.6350     1.3210    -1.5720 h1         1 0YU       0.065200
     56 H23         11.3880     1.9670     1.3790 h1         1 0YU       0.048200
     57 H24         11.5390     3.0920     0.0230 h1         1 0YU       0.048200
     58 H25          9.1270     2.6620     1.0870 hn         1 0YU       0.408800
@<TRIPOS>BOND
     1     1     2 1   
     2     1     5 1   
     3     1    38 1   
     4     2     3 2   
     5     2    39 1   
     6     3     4 1   
     7     3    40 1   
     8     4     5 2   
     9     5     6 1   
    10     6     7 ar  
    11     6     9 ar  
    12     7     8 ar  
    13     7    41 1   
    14     8    11 ar  
    15     8    42 1   
    16     9    10 ar  
    17     9    43 1   
    18    10    11 ar  
    19    10    44 1   
    20    11    12 1   
    21    12    13 1   
    22    12    45 1   
    23    13    14 2   
    24    13    15 1   
    25    15    16 ar  
    26    15    21 ar  
    27    16    17 ar  
    28    16    18 1   
    29    17    23 ar  
    30    17    46 1   
    31    18    19 1   
    32    18    20 1   
    33    21    22 ar  
    34    21    47 1   
    35    22    23 ar  
    36    22    48 1   
    37    23    24 1   
    38    24    25 2   
    39    24    26 1   
    40    26    27 1   
    41    26    49 1   
    42    27    28 ar  
    43    27    30 ar  
    44    28    29 ar  
    45    28    50 1   
    46    29    32 ar  
    47    29    51 1   
    48    30    31 ar  
    49    30    52 1   
    50    31    32 ar  
    51    31    53 1   
    52    32    33 1   
    53    33    34 2   
    54    33    37 1   
    55    34    35 1   
    56    35    36 1   
    57    35    54 1   
    58    35    55 1   
    59    36    37 1   
    60    36    56 1   
    61    36    57 1   
    62    37    58 1   
@<TRIPOS>SUBSTRUCTURE
     1 0YU         1 TEMP              0 ****  ****    0 ROOT
