@<TRIPOS>MOLECULE
0YV
   52    54     1     0     0
SMALL
abcg2


@<TRIPOS>ATOM
      1 NAA          6.0820     5.4080     1.3160 n8         1 0YV      -0.998700
      2 CAS          6.0910     3.9550     1.3180 c3         1 0YV       0.150800
      3 CAU          5.9200     3.4190    -0.1030 c3         1 0YV      -0.036100
      4 CBC          5.9160     1.9180    -0.1290 ca         1 0YV      -0.079300
      5 CAQ          4.7230     1.2090    -0.1000 ca         1 0YV      -0.076000
      6 CAN          7.1210     1.2160    -0.1370 ca         1 0YV      -0.076500
      7 CAW          7.1100    -0.1700    -0.1180 ca         1 0YV      -0.019400
      8 BRC          8.7510    -1.1050    -0.1340 br         1 0YV      -0.094100
      9 CAL          5.9280    -0.8880    -0.0920 ca         1 0YV      -0.066000
     10 CBA          4.7190    -0.1870    -0.0840 ca         1 0YV       0.033500
     11 CAG          3.4890    -0.9010    -0.0620 cg         1 0YV      -0.106000
     12 CAE          2.4430    -1.5040    -0.0410 ch         1 0YV      -0.097000
     13 CAY          1.2130    -2.2170    -0.0190 ca         1 0YV       0.025500
     14 CAP          0.0040    -1.5220     0.0080 ca         1 0YV      -0.065000
     15 CAJ          1.2060    -3.6160    -0.0250 ca         1 0YV      -0.078000
     16 CAI          0.0030    -4.3030    -0.0050 ca         1 0YV      -0.114000
     17 CAK         -1.2000    -3.6150     0.0210 ca         1 0YV      -0.078000
     18 CAZ         -1.2060    -2.2170     0.0280 ca         1 0YV       0.025500
     19 CAF         -2.4360    -1.5030     0.0570 cg         1 0YV      -0.097000
     20 CAH         -3.4800    -0.8980     0.0820 ch         1 0YV      -0.106000
     21 CBB         -4.7100    -0.1850     0.1140 ca         1 0YV       0.033500
     22 CAR         -4.7160     1.2110     0.1390 ca         1 0YV      -0.076000
     23 CAM         -5.9190    -0.8870     0.1240 ca         1 0YV      -0.066000
     24 CAX         -7.1020    -0.1710     0.1610 ca         1 0YV      -0.019400
     25 BRD         -8.7420    -1.1070     0.1830 br         1 0YV      -0.094100
     26 CAO         -7.1130     1.2160     0.1870 ca         1 0YV      -0.076500
     27 CBD         -5.9100     1.9190     0.1770 ca         1 0YV      -0.079300
     28 CAV         -5.9180     3.4200     0.1580 c3         1 0YV      -0.036100
     29 CAT         -6.0710     3.9610    -1.2620 c3         1 0YV       0.150800
     30 NAB         -6.0910     5.4140    -1.2520 n8         1 0YV      -0.998700
     31 H1           6.1300     5.7460     2.2690 hn         1 0YV       0.394500
     32 H2           6.9230     5.7470     0.8640 hn         1 0YV       0.394500
     33 H4           7.0010     3.5170     1.7530 h1         1 0YV       0.032450
     34 H5           5.2580     3.6030     1.9310 h1         1 0YV       0.032450
     35 H6           4.9870     3.8040    -0.5210 hc         1 0YV       0.057950
     36 H7           6.7330     3.7960    -0.7300 hc         1 0YV       0.057950
     37 H8           3.7810     1.7440    -0.0960 ha         1 0YV       0.124500
     38 H9           8.0550     1.7630    -0.1640 ha         1 0YV       0.131000
     39 H10          5.9240    -1.9700    -0.0820 ha         1 0YV       0.136500
     40 H11          0.0040    -0.4410     0.0130 ha         1 0YV       0.127000
     41 H12          2.1420    -4.1580    -0.0460 ha         1 0YV       0.123000
     42 H13          0.0020    -5.3840    -0.0110 ha         1 0YV       0.120000
     43 H14         -2.1360    -4.1570     0.0360 ha         1 0YV       0.123000
     44 H15         -3.7750     1.7480     0.1330 ha         1 0YV       0.124500
     45 H16         -5.9140    -1.9680     0.1070 ha         1 0YV       0.136500
     46 H17         -8.0490     1.7610     0.2200 ha         1 0YV       0.131000
     47 H18         -6.7380     3.8000     0.7720 hc         1 0YV       0.057950
     48 H19         -4.9890     3.7980     0.5940 hc         1 0YV       0.057950
     49 H20         -5.2800     3.5310    -1.8920 h1         1 0YV       0.032450
     50 H21         -7.0200     3.6070    -1.6750 h1         1 0YV       0.032450
     51 H22         -5.1710     5.7620    -1.0120 hn         1 0YV       0.394500
     52 H23         -6.2770     5.7550    -2.1860 hn         1 0YV       0.394500
@<TRIPOS>BOND
     1     1     2 1   
     2     1    31 1   
     3     1    32 1   
     4     2     3 1   
     5     2    33 1   
     6     2    34 1   
     7     3     4 1   
     8     3    35 1   
     9     3    36 1   
    10     4     5 ar  
    11     4     6 ar  
    12     5    10 ar  
    13     5    37 1   
    14     6     7 ar  
    15     6    38 1   
    16     7     8 1   
    17     7     9 ar  
    18     9    10 ar  
    19     9    39 1   
    20    10    11 1   
    21    11    12 3   
    22    12    13 1   
    23    13    14 ar  
    24    13    15 ar  
    25    14    18 ar  
    26    14    40 1   
    27    15    16 ar  
    28    15    41 1   
    29    16    17 ar  
    30    16    42 1   
    31    17    18 ar  
    32    17    43 1   
    33    18    19 1   
    34    19    20 3   
    35    20    21 1   
    36    21    22 ar  
    37    21    23 ar  
    38    22    27 ar  
    39    22    44 1   
    40    23    24 ar  
    41    23    45 1   
    42    24    25 1   
    43    24    26 ar  
    44    26    27 ar  
    45    26    46 1   
    46    27    28 1   
    47    28    29 1   
    48    28    47 1   
    49    28    48 1   
    50    29    30 1   
    51    29    49 1   
    52    29    50 1   
    53    30    51 1   
    54    30    52 1   
@<TRIPOS>SUBSTRUCTURE
     1 0YV         1 TEMP              0 ****  ****    0 ROOT
