@<TRIPOS>MOLECULE
0YV
   52    54     1     0     0
SMALL
No Charge or Current Charge


@<TRIPOS>ATOM
      1 NAA          6.0620     5.2870     1.8800 n8         1 0YV      -0.998700
      2 CAS          6.0720     3.8280     1.6470 c3         1 0YV       0.150800
      3 CAU          5.9210     3.4820     0.1520 c3         1 0YV      -0.036100
      4 CBC          5.9250     1.9770    -0.0890 ca         1 0YV      -0.079300
      5 CAQ          4.7250     1.2430    -0.0170 ca         1 0YV      -0.076000
      6 CAN          7.1300     1.3070    -0.3770 ca         1 0YV      -0.076500
      7 CAW          7.1310    -0.0820    -0.5920 ca         1 0YV      -0.019400
      8 BrC          8.7710    -0.9840    -0.9830 br         1 0YV      -0.094100
      9 CAL          5.9320    -0.8100    -0.5220 ca         1 0YV      -0.066000
     10 CBA          4.7250    -0.1480    -0.2330 ca         1 0YV       0.033500
     11 CAG          3.5000    -0.8880    -0.1580 cg         1 0YV      -0.106000
     12 CAE          2.4520    -1.5110    -0.1060 ch         1 0YV      -0.097000
     13 CAY          1.2200    -2.2250    -0.0520 ca         1 0YV       0.025500
     14 CAP          0.0010    -1.5250     0.0230 ca         1 0YV      -0.065000
     15 CAJ          1.2180    -3.6320    -0.0750 ca         1 0YV      -0.078000
     16 CAI          0.0020    -4.3360    -0.0230 ca         1 0YV      -0.114000
     17 CAK         -1.2150    -3.6360     0.0520 ca         1 0YV      -0.078000
     18 CAZ         -1.2170    -2.2290     0.0750 ca         1 0YV       0.025500
     19 CAF         -2.4570    -1.5130     0.1510 cg         1 0YV      -0.097000
     20 CAH         -3.5060    -0.8920     0.2150 ch         1 0YV      -0.106000
     21 CBB         -4.7230    -0.1540     0.2840 ca         1 0YV       0.033500
     22 CAR         -4.7180     1.2380     0.0710 ca         1 0YV      -0.076000
     23 CAM         -5.9330    -0.8130     0.5640 ca         1 0YV      -0.066000
     24 CAX         -7.1300    -0.0820     0.6290 ca         1 0YV      -0.019400
     25 BrD         -8.7760    -0.9800     1.0070 br         1 0YV      -0.094100
     26 CAO         -7.1250     1.3070     0.4160 ca         1 0YV      -0.076500
     27 CBD         -5.9170     1.9750     0.1370 ca         1 0YV      -0.079300
     28 CAV         -5.9080     3.4800    -0.1000 c3         1 0YV      -0.036100
     29 CAT         -6.1000     3.8310    -1.5900 c3         1 0YV       0.150800
     30 NAB         -6.0990     5.2910    -1.8180 n8         1 0YV      -0.998700
     31 H1           6.2150     5.4670     2.8810 hn         1 0YV       0.394500
     32 H2           6.8880     5.7040     1.4340 hn         1 0YV       0.394500
     33 H4           7.0160     3.4150     2.0280 h1         1 0YV       0.032450
     34 H5           5.2450     3.3760     2.2130 h1         1 0YV       0.032450
     35 H6           4.9880     3.9190    -0.2260 hc         1 0YV       0.057950
     36 H7           6.7330     3.9560    -0.4140 hc         1 0YV       0.057950
     37 H8           3.7910     1.7540     0.2080 ha         1 0YV       0.124500
     38 H9           8.0650     1.8600    -0.4320 ha         1 0YV       0.131000
     39 H10          5.9400    -1.8850    -0.6890 ha         1 0YV       0.136500
     40 H11         -0.0000    -0.4380     0.0400 ha         1 0YV       0.127000
     41 H12          2.1560    -4.1800    -0.1330 ha         1 0YV       0.123000
     42 H13          0.0020    -5.4240    -0.0410 ha         1 0YV       0.120000
     43 H14         -2.1530    -4.1860     0.0920 ha         1 0YV       0.123000
     44 H15         -3.7810     1.7470    -0.1480 ha         1 0YV       0.124500
     45 H16         -5.9460    -1.8880     0.7290 ha         1 0YV       0.136500
     46 H17         -8.0590     1.8630     0.4670 ha         1 0YV       0.131000
     47 H18         -6.7020     3.9580     0.4880 hc         1 0YV       0.057950
     48 H19         -4.9630     3.9100     0.2540 hc         1 0YV       0.057950
     49 H20         -5.2930     3.3790    -2.1820 h1         1 0YV       0.032450
     50 H21         -7.0580     3.4210    -1.9410 h1         1 0YV       0.032450
     51 H22         -5.1720     5.6660    -1.5820 hn         1 0YV       0.394500
     52 H23         -6.1790     5.4720    -2.8270 hn         1 0YV       0.394500
@<TRIPOS>BOND
     1     1     2 1   
     2     1    31 1   
     3     1    32 1   
     4     2     3 1   
     5     2    33 1   
     6     2    34 1   
     7     3     4 1   
     8     3    35 1   
     9     3    36 1   
    10     4     5 ar  
    11     4     6 ar  
    12     5    10 ar  
    13     5    37 1   
    14     6     7 ar  
    15     6    38 1   
    16     7     8 1   
    17     7     9 ar  
    18     9    10 ar  
    19     9    39 1   
    20    10    11 1   
    21    11    12 3   
    22    12    13 1   
    23    13    14 ar  
    24    13    15 ar  
    25    14    18 ar  
    26    14    40 1   
    27    15    16 ar  
    28    15    41 1   
    29    16    17 ar  
    30    16    42 1   
    31    17    18 ar  
    32    17    43 1   
    33    18    19 1   
    34    19    20 3   
    35    20    21 1   
    36    21    22 ar  
    37    21    23 ar  
    38    22    27 ar  
    39    22    44 1   
    40    23    24 ar  
    41    23    45 1   
    42    24    25 1   
    43    24    26 ar  
    44    26    27 ar  
    45    26    46 1   
    46    27    28 1   
    47    28    29 1   
    48    28    47 1   
    49    28    48 1   
    50    29    30 1   
    51    29    49 1   
    52    29    50 1   
    53    30    51 1   
    54    30    52 1   
@<TRIPOS>SUBSTRUCTURE
     1 0YV         1 TEMP              0 ****  ****    0 ROOT
