@<TRIPOS>MOLECULE
0YW
   61    62     1     0     0
SMALL
bcc


@<TRIPOS>ATOM
      1 OAB          4.6260     2.5350     0.1480 o          1 0YW      -0.799800
      2 CAY          5.8220     2.1400     0.1890 c          1 0YW       0.939200
      3 OAE          6.8160     2.8630     0.3080 o          1 0YW      -0.799800
      4 CBE          6.0610     0.6340     0.0890 ca         1 0YW      -0.229600
      5 CAM          7.3700     0.1930     0.1620 ca         1 0YW      -0.010000
      6 CBC          7.6700    -1.1580     0.0800 ca         1 0YW      -0.253200
      7 NBF          9.0450    -1.5900     0.1570 no         1 0YW       0.326200
      8 OAF          9.2760    -2.7780     0.0960 o          1 0YW      -0.247000
      9 OAD          9.9080    -0.7490     0.2780 o          1 0YW      -0.247000
     10 CAJ          6.6610    -2.0990    -0.0780 ca         1 0YW      -0.048000
     11 CAK          5.3510    -1.6820    -0.1540 ca         1 0YW      -0.218000
     12 CBD          5.0250    -0.3190    -0.0750 ca         1 0YW       0.153600
     13 NAW          3.7360     0.1650    -0.1580 ns         1 0YW      -0.489100
     14 CAZ          2.5720    -0.5090    -0.3480 c          1 0YW       0.685700
     15 OAC          2.4730    -1.7240    -0.3830 o          1 0YW      -0.618100
     16 CBB          1.3680     0.3660    -0.5060 ca         1 0YW      -0.106600
     17 CAL          0.1300    -0.1930    -0.2230 ca         1 0YW      -0.119000
     18 CAI          1.4490     1.6840    -0.9580 ca         1 0YW      -0.114000
     19 CAG          0.2870     2.4220    -1.1010 ca         1 0YW      -0.108000
     20 CAH         -0.9550     1.8780    -0.8010 ca         1 0YW      -0.207000
     21 CBA         -1.0370     0.5570    -0.3620 ca         1 0YW       0.118100
     22 OAX         -2.1870    -0.0710    -0.0600 os         1 0YW      -0.328900
     23 CAV         -3.4100     0.6400    -0.1890 c3         1 0YW       0.145400
     24 CAU         -4.5550    -0.3000     0.1190 c3         1 0YW      -0.081400
     25 CAT         -5.8950     0.4240     0.0430 c3         1 0YW      -0.074400
     26 CAS         -7.0880    -0.5110     0.1920 c3         1 0YW      -0.073400
     27 CAR         -8.4240     0.2210     0.1580 c3         1 0YW      -0.074400
     28 CAQ         -9.6240    -0.7160     0.2200 c3         1 0YW      -0.074400
     29 CAP        -10.9600     0.0170     0.2120 c3         1 0YW      -0.074400
     30 CAO        -12.1610    -0.9200     0.2380 c3         1 0YW      -0.075400
     31 CAN        -13.4980    -0.1900     0.2400 c3         1 0YW      -0.075400
     32 CAA        -14.6880    -1.1400     0.2560 c3         1 0YW      -0.088100
     33 H2           8.1520     0.9280     0.2810 ha         1 0YW       0.185000
     34 H3           6.8810    -3.1540    -0.1410 ha         1 0YW       0.145000
     35 H4           4.5780    -2.4210    -0.2720 ha         1 0YW       0.161000
     36 H5           3.7450     1.2000    -0.0410 hn         1 0YW       0.407500
     37 H6           0.0580    -1.2190     0.1160 ha         1 0YW       0.159000
     38 H7           2.3940     2.1360    -1.2250 ha         1 0YW       0.173000
     39 H8           0.3410     3.4420    -1.4580 ha         1 0YW       0.130000
     40 H9          -1.8380     2.4900    -0.9200 ha         1 0YW       0.124000
     41 H10         -3.4200     1.4970     0.4960 h1         1 0YW       0.030200
     42 H11         -3.5170     1.0320    -1.2070 h1         1 0YW       0.030200
     43 H12         -4.5430    -1.1300    -0.5950 hc         1 0YW       0.054700
     44 H13         -4.4260    -0.7320     1.1150 hc         1 0YW       0.054700
     45 H14         -5.9360     1.1970     0.8170 hc         1 0YW       0.037700
     46 H15         -5.9720     0.9500    -0.9150 hc         1 0YW       0.037700
     47 H16         -7.0620    -1.2580    -0.6090 hc         1 0YW       0.039200
     48 H17         -7.0030    -1.0690     1.1310 hc         1 0YW       0.039200
     49 H18         -8.4710     0.9290     0.9930 hc         1 0YW       0.036700
     50 H19         -8.4850     0.8250    -0.7540 hc         1 0YW       0.036700
     51 H20         -9.5850    -1.4080    -0.6290 hc         1 0YW       0.037700
     52 H21         -9.5560    -1.3370     1.1200 hc         1 0YW       0.037700
     53 H22        -11.0080     0.6930     1.0740 hc         1 0YW       0.036700
     54 H23        -11.0190     0.6570    -0.6760 hc         1 0YW       0.036700
     55 H24        -12.1150    -1.5900    -0.6280 hc         1 0YW       0.036700
     56 H25        -12.0990    -1.5660     1.1220 hc         1 0YW       0.036700
     57 H26        -13.5460     0.4740     1.1080 hc         1 0YW       0.036200
     58 H27        -13.5570     0.4580    -0.6400 hc         1 0YW       0.036200
     59 H28        -14.6810    -1.7930    -0.6190 hc         1 0YW       0.030367
     60 H29        -14.6690    -1.7770     1.1420 hc         1 0YW       0.030367
     61 H30        -15.6360    -0.6000     0.2580 hc         1 0YW       0.030367
@<TRIPOS>BOND
     1     1     2 1   
     2     2     3 1   
     3     2     4 1   
     4     4     5 ar  
     5     4    12 ar  
     6     5     6 ar  
     7     5    33 1   
     8     6     7 1   
     9     6    10 ar  
    10     7     8 1   
    11     7     9 1   
    12    10    11 ar  
    13    10    34 1   
    14    11    12 ar  
    15    11    35 1   
    16    12    13 1   
    17    13    14 1   
    18    13    36 1   
    19    14    15 2   
    20    14    16 1   
    21    16    17 ar  
    22    16    18 ar  
    23    17    21 ar  
    24    17    37 1   
    25    18    19 ar  
    26    18    38 1   
    27    19    20 ar  
    28    19    39 1   
    29    20    21 ar  
    30    20    40 1   
    31    21    22 1   
    32    22    23 1   
    33    23    24 1   
    34    23    41 1   
    35    23    42 1   
    36    24    25 1   
    37    24    43 1   
    38    24    44 1   
    39    25    26 1   
    40    25    45 1   
    41    25    46 1   
    42    26    27 1   
    43    26    47 1   
    44    26    48 1   
    45    27    28 1   
    46    27    49 1   
    47    27    50 1   
    48    28    29 1   
    49    28    51 1   
    50    28    52 1   
    51    29    30 1   
    52    29    53 1   
    53    29    54 1   
    54    30    31 1   
    55    30    55 1   
    56    30    56 1   
    57    31    32 1   
    58    31    57 1   
    59    31    58 1   
    60    32    59 1   
    61    32    60 1   
    62    32    61 1   
@<TRIPOS>SUBSTRUCTURE
     1 0YW         1 TEMP              0 ****  ****    0 ROOT
