@<TRIPOS>MOLECULE
0YW
   61    62     1     0     0
SMALL
No Charge or Current Charge


@<TRIPOS>ATOM
      1 OAB          5.1780     2.5450    -0.6630 o          1 0YW      -0.694500
      2 CAY          6.0650     1.8510    -1.1370 c          1 0YW       0.728600
      3 OAE          6.8070     2.2270    -2.0310 o          1 0YW      -0.694500
      4 CBE          6.2800     0.4630    -0.5730 ca         1 0YW      -0.229600
      5 CAM          7.5970    -0.0480    -0.5380 ca         1 0YW       0.008000
      6 CBC          7.8670    -1.3350    -0.0220 ca         1 0YW      -0.253200
      7 NBF          9.2690    -1.8590     0.0130 no         1 0YW       0.706200
      8 OAF          9.4600    -2.9930     0.4710 o          1 0YW      -0.437000
      9 OAD         10.1760    -1.1350    -0.4180 o          1 0YW      -0.437000
     10 CAJ          6.7990    -2.1140     0.4640 ca         1 0YW      -0.030000
     11 CAK          5.4880    -1.6160     0.4270 ca         1 0YW      -0.200000
     12 CBD          5.2070    -0.3370    -0.0980 ca         1 0YW       0.061000
     13 NAW          3.8820     0.1760    -0.1420 ns         1 0YW      -0.163000
     14 CAZ          2.6370    -0.4300    -0.0600 c          1 0YW       0.618700
     15 OAC          2.4920    -1.6470     0.0060 o          1 0YW      -0.618100
     16 CBB          1.4350     0.5030    -0.0760 ca         1 0YW      -0.106600
     17 CAL          0.1310    -0.0470    -0.0450 ca         1 0YW      -0.101000
     18 CAI          1.5640     1.9150    -0.1150 ca         1 0YW      -0.096000
     19 CAG          0.4250     2.7380    -0.1280 ca         1 0YW      -0.090000
     20 CAH         -0.8600     2.1740    -0.0990 ca         1 0YW      -0.189000
     21 CBA         -1.0100     0.7730    -0.0570 ca         1 0YW       0.118100
     22 OAX         -2.2450     0.1600    -0.0270 os         1 0YW      -0.352100
     23 CAV         -3.4730     0.9090    -0.0360 c3         1 0YW       0.168600
     24 CAU         -4.6370    -0.0990     0.0060 c3         1 0YW      -0.081400
     25 CAT         -6.0230     0.5820     0.0020 c3         1 0YW      -0.074400
     26 CAS         -7.1920    -0.4270     0.0430 c3         1 0YW      -0.073400
     27 CAR         -8.5780     0.2550     0.0390 c3         1 0YW      -0.074400
     28 CAQ         -9.7470    -0.7540     0.0810 c3         1 0YW      -0.074400
     29 CAP        -11.1330    -0.0720     0.0770 c3         1 0YW      -0.074400
     30 CAO        -12.3030    -1.0800     0.1180 c3         1 0YW      -0.075400
     31 CAN        -13.6890    -0.3990     0.1140 c3         1 0YW      -0.075400
     32 CAA        -14.8550    -1.4050     0.1560 c3         1 0YW      -0.088100
     33 H2           8.4140     0.5710    -0.9090 ha         1 0YW       0.167000
     34 H3           6.9730    -3.1060     0.8770 ha         1 0YW       0.127000
     35 H4           4.6970    -2.2420     0.8280 ha         1 0YW       0.143000
     36 H5           3.8530     1.1820    -0.2520 hn         1 0YW       0.241000
     37 H6          -0.0080    -1.1250    -0.0130 ha         1 0YW       0.141000
     38 H7           2.5380     2.3990    -0.1340 ha         1 0YW       0.155000
     39 H8           0.5400     3.8190    -0.1580 ha         1 0YW       0.112000
     40 H9          -1.7210     2.8370    -0.1090 ha         1 0YW       0.106000
     41 H10         -3.5290     1.5700     0.8390 h1         1 0YW       0.030200
     42 H11         -3.5480     1.5190    -0.9450 h1         1 0YW       0.030200
     43 H12         -4.5590    -0.7690    -0.8590 hc         1 0YW       0.054700
     44 H13         -4.5400    -0.7190     0.9060 hc         1 0YW       0.054700
     45 H14         -6.0960     1.2540     0.8660 hc         1 0YW       0.037700
     46 H15         -6.1160     1.2040    -0.8980 hc         1 0YW       0.037700
     47 H16         -7.1190    -1.0990    -0.8210 hc         1 0YW       0.039200
     48 H17         -7.0990    -1.0490     0.9420 hc         1 0YW       0.039200
     49 H18         -8.6510     0.9270     0.9030 hc         1 0YW       0.036700
     50 H19         -8.6710     0.8770    -0.8600 hc         1 0YW       0.036700
     51 H20         -9.6740    -1.4260    -0.7830 hc         1 0YW       0.037700
     52 H21         -9.6540    -1.3760     0.9800 hc         1 0YW       0.037700
     53 H22        -11.2070     0.6000     0.9410 hc         1 0YW       0.036700
     54 H23        -11.2260     0.5500    -0.8220 hc         1 0YW       0.036700
     55 H24        -12.2290    -1.7530    -0.7460 hc         1 0YW       0.036700
     56 H25        -12.2100    -1.7030     1.0170 hc         1 0YW       0.036700
     57 H26        -13.7660     0.2720     0.9790 hc         1 0YW       0.036200
     58 H27        -13.7860     0.2230    -0.7840 hc         1 0YW       0.036200
     59 H28        -14.8260    -2.0700    -0.7160 hc         1 0YW       0.030367
     60 H29        -14.8060    -2.0200     1.0630 hc         1 0YW       0.030367
     61 H30        -15.8160    -0.8760     0.1510 hc         1 0YW       0.030367
@<TRIPOS>BOND
     1     1     2 1   
     2     2     3 1   
     3     2     4 1   
     4     4     5 ar  
     5     4    12 ar  
     6     5     6 ar  
     7     5    33 1   
     8     6     7 1   
     9     6    10 ar  
    10     7     8 1   
    11     7     9 1   
    12    10    11 ar  
    13    10    34 1   
    14    11    12 ar  
    15    11    35 1   
    16    12    13 1   
    17    13    14 1   
    18    13    36 1   
    19    14    15 2   
    20    14    16 1   
    21    16    17 ar  
    22    16    18 ar  
    23    17    21 ar  
    24    17    37 1   
    25    18    19 ar  
    26    18    38 1   
    27    19    20 ar  
    28    19    39 1   
    29    20    21 ar  
    30    20    40 1   
    31    21    22 1   
    32    22    23 1   
    33    23    24 1   
    34    23    41 1   
    35    23    42 1   
    36    24    25 1   
    37    24    43 1   
    38    24    44 1   
    39    25    26 1   
    40    25    45 1   
    41    25    46 1   
    42    26    27 1   
    43    26    47 1   
    44    26    48 1   
    45    27    28 1   
    46    27    49 1   
    47    27    50 1   
    48    28    29 1   
    49    28    51 1   
    50    28    52 1   
    51    29    30 1   
    52    29    53 1   
    53    29    54 1   
    54    30    31 1   
    55    30    55 1   
    56    30    56 1   
    57    31    32 1   
    58    31    57 1   
    59    31    58 1   
    60    32    59 1   
    61    32    60 1   
    62    32    61 1   
@<TRIPOS>SUBSTRUCTURE
     1 0YW         1 TEMP              0 ****  ****    0 ROOT
