@<TRIPOS>MOLECULE
0YX
   54    55     1     0     0
SMALL
No Charge or Current Charge


@<TRIPOS>ATOM
      1 OAC         45.5440    29.6810    62.8310 o          1 0YX      -0.916167
      2 PBB         46.4610    28.5060    62.7610 p5         1 0YX       1.153000
      3 OAD         47.2800    28.4380    64.0070 o          1 0YX      -0.916167
      4 OAB         47.3630    28.6520    61.5810 o          1 0YX      -0.916167
      5 CBA         45.4700    26.9670    62.5840 ca         1 0YX      -0.100500
      6 CAL         45.5930    25.9680    63.5740 ca         1 0YX      -0.039000
      7 CAW         44.8570    24.7760    63.4800 ca         1 0YX      -0.043900
      8 BrE         45.0370    23.4350    64.8290 br         1 0YX      -0.239100
      9 CAI         43.9910    24.5670    62.4000 ca         1 0YX      -0.114000
     10 CAJ         43.8590    25.5520    61.4090 ca         1 0YX      -0.251000
     11 CAZ         44.5960    26.7600    61.4920 ca         1 0YX       0.176100
     12 OAV         44.4750    27.7390    60.5220 os         1 0YX      -0.283100
     13 CAT         43.6220    27.5810    59.3750 c3         1 0YX       0.207900
     14 CAX         43.7190    28.8240    58.4990 ca         1 0YX      -0.028300
     15 CAK         42.8110    29.8880    58.6700 ca         1 0YX      -0.075000
     16 CAG         44.7020    28.9130    57.4950 ca         1 0YX      -0.150000
     17 CAF         44.7730    30.0470    56.6700 ca         1 0YX      -0.105000
     18 CAH         43.8600    31.1010    56.8390 ca         1 0YX      -0.215000
     19 CAY         42.8750    31.0270    57.8490 ca         1 0YX       0.126100
     20 OAU         41.9360    32.0210    58.0570 os         1 0YX      -0.331100
     21 CAS         41.9610    33.2940    57.3780 c3         1 0YX       0.167600
     22 CAR         43.0740    34.1860    57.9810 c3         1 0YX      -0.099400
     23 CAQ         42.8790    34.5030    59.4820 c3         1 0YX      -0.079400
     24 CAP         43.9600    35.4530    60.0430 c3         1 0YX      -0.068400
     25 CAO         43.7650    35.7700    61.5440 c3         1 0YX      -0.079400
     26 CAN         44.7680    36.8000    62.1180 c3         1 0YX      -0.068400
     27 CAM         46.2390    36.3220    62.1350 c3         1 0YX      -0.081400
     28 CAA         47.1930    37.3390    62.7910 c3         1 0YX      -0.086100
     29 H3          46.2620    26.1150    64.4180 ha         1 0YX       0.163000
     30 H4          43.4210    23.6430    62.3290 ha         1 0YX       0.078000
     31 H5          43.1780    25.3580    60.5860 ha         1 0YX       0.072000
     32 H6          42.5800    27.4390    59.6880 h1         1 0YX       0.019700
     33 H7          43.9260    26.7030    58.7890 h1         1 0YX       0.019700
     34 H8          42.0450    29.8330    59.4400 ha         1 0YX       0.193000
     35 H9          45.4090    28.0990    57.3530 ha         1 0YX       0.098000
     36 H10         45.5320    30.1050    55.8930 ha         1 0YX       0.083000
     37 H11         43.9320    31.9590    56.1780 ha         1 0YX       0.091000
     38 H12         40.9980    33.8020    57.5170 h1         1 0YX       0.037200
     39 H13         42.1070    33.1680    56.2980 h1         1 0YX       0.037200
     40 H14         44.0530    33.7160    57.8330 hc         1 0YX       0.033200
     41 H15         43.0950    35.1290    57.4200 hc         1 0YX       0.033200
     42 H16         41.8890    34.9550    59.6300 hc         1 0YX       0.064700
     43 H17         42.8910    33.5670    60.0560 hc         1 0YX       0.064700
     44 H18         44.9440    34.9950    59.8890 hc         1 0YX       0.023200
     45 H19         43.9470    36.3890    59.4720 hc         1 0YX       0.023200
     46 H20         42.7500    36.1610    61.6930 hc         1 0YX       0.053700
     47 H21         43.8290    34.8410    62.1250 hc         1 0YX       0.053700
     48 H22         44.4650    37.0410    63.1440 hc         1 0YX       0.024700
     49 H23         44.6960    37.7320    61.5430 hc         1 0YX       0.024700
     50 H24         46.3070    35.3700    62.6760 hc         1 0YX       0.047200
     51 H25         46.5810    36.1340    61.1110 hc         1 0YX       0.047200
     52 H26         48.2220    36.9600    62.7780 hc         1 0YX       0.022033
     53 H27         47.1730    38.2940    62.2510 hc         1 0YX       0.022033
     54 H28         46.9080    37.5240    63.8330 hc         1 0YX       0.022033
@<TRIPOS>BOND
     1     1     2 1   
     2     2     3 1   
     3     2     4 1   
     4     2     5 1   
     5     5     6 ar  
     6     5    11 ar  
     7     6     7 ar  
     8     6    29 1   
     9     7     8 1   
    10     7     9 ar  
    11     9    10 ar  
    12     9    30 1   
    13    10    11 ar  
    14    10    31 1   
    15    11    12 1   
    16    12    13 1   
    17    13    14 1   
    18    13    32 1   
    19    13    33 1   
    20    14    15 ar  
    21    14    16 ar  
    22    15    19 ar  
    23    15    34 1   
    24    16    17 ar  
    25    16    35 1   
    26    17    18 ar  
    27    17    36 1   
    28    18    19 ar  
    29    18    37 1   
    30    19    20 1   
    31    20    21 1   
    32    21    22 1   
    33    21    38 1   
    34    21    39 1   
    35    22    23 1   
    36    22    40 1   
    37    22    41 1   
    38    23    24 1   
    39    23    42 1   
    40    23    43 1   
    41    24    25 1   
    42    24    44 1   
    43    24    45 1   
    44    25    26 1   
    45    25    46 1   
    46    25    47 1   
    47    26    27 1   
    48    26    48 1   
    49    26    49 1   
    50    27    28 1   
    51    27    50 1   
    52    27    51 1   
    53    28    52 1   
    54    28    53 1   
    55    28    54 1   
@<TRIPOS>SUBSTRUCTURE
     1 0YX         1 TEMP              0 ****  ****    0 ROOT
