@<TRIPOS>MOLECULE
0YX
   54    55     1     0     0
SMALL
abcg2


@<TRIPOS>ATOM
      1 OAC         43.1180    29.0890    63.0600 o          1 0YX      -0.916167
      2 PBB         44.4200    28.4530    63.5470 p5         1 0YX       1.153000
      3 OAD         44.4240    28.1730    65.0510 o          1 0YX      -0.916167
      4 OAB         45.6870    29.1590    63.0620 o          1 0YX      -0.916167
      5 CBA         44.4680    26.7520    62.7640 ca         1 0YX      -0.100500
      6 CAL         44.5130    25.6370    63.6000 ca         1 0YX      -0.039000
      7 CAW         44.5510    24.3470    63.0840 ca         1 0YX      -0.043900
      8 BRE         44.6080    22.8480    64.2950 br         1 0YX      -0.239100
      9 CAI         44.5500    24.1170    61.7230 ca         1 0YX      -0.114000
     10 CAJ         44.5080    25.2140    60.8640 ca         1 0YX      -0.251000
     11 CAZ         44.4650    26.5140    61.3730 ca         1 0YX       0.176100
     12 OAV         44.4240    27.6070    60.5590 os         1 0YX      -0.283100
     13 CAT         44.3360    27.4070    59.1500 c3         1 0YX       0.207900
     14 CAX         44.1770    28.7360    58.4640 ca         1 0YX      -0.028300
     15 CAK         43.2960    29.6900    58.9580 ca         1 0YX      -0.075000
     16 CAG         44.8720    28.9880    57.2800 ca         1 0YX      -0.150000
     17 CAF         44.6640    30.1810    56.6010 ca         1 0YX      -0.105000
     18 CAH         43.7810    31.1400    57.0870 ca         1 0YX      -0.215000
     19 CAY         43.0940    30.8930    58.2780 ca         1 0YX       0.126100
     20 OAU         42.1970    31.7450    58.8450 os         1 0YX      -0.331100
     21 CAS         41.8940    32.9960    58.2050 c3         1 0YX       0.167600
     22 CAR         42.9330    34.0760    58.4660 c3         1 0YX      -0.099400
     23 CAQ         43.1120    34.4150    59.9440 c3         1 0YX      -0.079400
     24 CAP         44.1010    35.5560    60.1690 c3         1 0YX      -0.068400
     25 CAO         44.2910    35.9070    61.6440 c3         1 0YX      -0.079400
     26 CAN         45.1870    37.1220    61.8940 c3         1 0YX      -0.068400
     27 CAM         46.6450    36.9350    61.4750 c3         1 0YX      -0.081400
     28 CAA         47.5150    38.1450    61.8120 c3         1 0YX      -0.086100
     29 H3          44.5150    25.8050    64.6670 ha         1 0YX       0.163000
     30 H4          44.5830    23.1140    61.3200 ha         1 0YX       0.078000
     31 H5          44.5130    25.0320    59.8000 ha         1 0YX       0.072000
     32 H6          43.4730    26.7680    58.9270 h1         1 0YX       0.019700
     33 H7          45.2320    26.9010    58.7810 h1         1 0YX       0.019700
     34 H8          42.7540    29.5130    59.8770 ha         1 0YX       0.193000
     35 H9          45.5680    28.2530    56.8950 ha         1 0YX       0.098000
     36 H10         45.2020    30.3790    55.6820 ha         1 0YX       0.083000
     37 H11         43.6440    32.0600    56.5400 ha         1 0YX       0.091000
     38 H12         40.9360    33.2890    58.6350 h1         1 0YX       0.037200
     39 H13         41.7480    32.8350    57.1340 h1         1 0YX       0.037200
     40 H14         43.8950    33.7860    58.0360 hc         1 0YX       0.033200
     41 H15         42.6060    34.9680    57.9210 hc         1 0YX       0.033200
     42 H16         42.1400    34.6860    60.3730 hc         1 0YX       0.064700
     43 H17         43.4520    33.5260    60.4840 hc         1 0YX       0.064700
     44 H18         45.0620    35.2860    59.7220 hc         1 0YX       0.023200
     45 H19         43.7510    36.4460    59.6320 hc         1 0YX       0.023200
     46 H20         43.3080    36.0970    62.0880 hc         1 0YX       0.053700
     47 H21         44.7030    35.0380    62.1710 hc         1 0YX       0.053700
     48 H22         45.1600    37.3680    62.9610 hc         1 0YX       0.024700
     49 H23         44.7710    37.9890    61.3680 hc         1 0YX       0.024700
     50 H24         47.0480    36.0440    61.9700 hc         1 0YX       0.047200
     51 H25         46.7010    36.7410    60.4000 hc         1 0YX       0.047200
     52 H26         48.5510    37.9920    61.5010 hc         1 0YX       0.022033
     53 H27         47.1450    39.0430    61.3110 hc         1 0YX       0.022033
     54 H28         47.5130    38.3410    62.8870 hc         1 0YX       0.022033
@<TRIPOS>BOND
     1     1     2 1   
     2     2     3 1   
     3     2     4 1   
     4     2     5 1   
     5     5     6 ar  
     6     5    11 ar  
     7     6     7 ar  
     8     6    29 1   
     9     7     8 1   
    10     7     9 ar  
    11     9    10 ar  
    12     9    30 1   
    13    10    11 ar  
    14    10    31 1   
    15    11    12 1   
    16    12    13 1   
    17    13    14 1   
    18    13    32 1   
    19    13    33 1   
    20    14    15 ar  
    21    14    16 ar  
    22    15    19 ar  
    23    15    34 1   
    24    16    17 ar  
    25    16    35 1   
    26    17    18 ar  
    27    17    36 1   
    28    18    19 ar  
    29    18    37 1   
    30    19    20 1   
    31    20    21 1   
    32    21    22 1   
    33    21    38 1   
    34    21    39 1   
    35    22    23 1   
    36    22    40 1   
    37    22    41 1   
    38    23    24 1   
    39    23    42 1   
    40    23    43 1   
    41    24    25 1   
    42    24    44 1   
    43    24    45 1   
    44    25    26 1   
    45    25    46 1   
    46    25    47 1   
    47    26    27 1   
    48    26    48 1   
    49    26    49 1   
    50    27    28 1   
    51    27    50 1   
    52    27    51 1   
    53    28    52 1   
    54    28    53 1   
    55    28    54 1   
@<TRIPOS>SUBSTRUCTURE
     1 0YX         1 TEMP              0 ****  ****    0 ROOT
