@<TRIPOS>MOLECULE
0YY
   46    46     1     0     0
SMALL
abcg2


@<TRIPOS>ATOM
      1 OAB          7.1810    -2.0000    -0.2760 o          1 0YY      -0.684500
      2 CAS          7.5140    -0.8050    -0.2350 c          1 0YY       0.710200
      3 OAD          8.6500    -0.3120    -0.2560 o          1 0YY      -0.684500
      4 CAU          6.3580     0.2030    -0.1450 ce         1 0YY       0.152900
      5 OAE          6.7160     1.4650    -0.1050 oh         1 0YY      -0.512100
      6 CAF          5.0530    -0.1960    -0.1090 cf         1 0YY      -0.534200
      7 CAT          3.9930     0.7700    -0.0260 c          1 0YY       0.597900
      8 OAC          4.2470     1.9890     0.0190 o          1 0YY      -0.665100
      9 CAW          2.5780     0.3340     0.0040 ca         1 0YY      -0.165600
     10 CAJ          1.5730     1.2980     0.0490 ca         1 0YY      -0.031000
     11 CAH          0.2330     0.9530     0.0740 ca         1 0YY      -0.198500
     12 CAI          2.1910    -1.0100    -0.0100 ca         1 0YY      -0.031000
     13 CAG          0.8610    -1.3710     0.0160 ca         1 0YY      -0.198500
     14 CAV         -0.1350    -0.3920     0.0560 ca         1 0YY       0.147100
     15 OAR         -1.4000    -0.8330     0.0740 os         1 0YY      -0.354100
     16 CAQ         -2.4640     0.1020     0.0910 c3         1 0YY       0.168600
     17 CAP         -3.7710    -0.6620     0.0600 c3         1 0YY      -0.082400
     18 CAO         -4.9720     0.2770     0.0720 c3         1 0YY      -0.073400
     19 CAN         -6.3000    -0.4670     0.0250 c3         1 0YY      -0.074400
     20 CAM         -7.5080     0.4620     0.0350 c3         1 0YY      -0.075400
     21 CAL         -8.8350    -0.2820    -0.0270 c3         1 0YY      -0.075400
     22 CAK        -10.0480     0.6410    -0.0170 c3         1 0YY      -0.075400
     23 CAA        -11.3650    -0.1180    -0.0910 c3         1 0YY      -0.088100
     24 H2           5.8700     1.9890    -0.0450 ho         1 0YY       0.490000
     25 H3           4.8630    -1.2540    -0.1480 ha         1 0YY       0.212000
     26 H4           1.8370     2.3470     0.0610 ha         1 0YY       0.132000
     27 H5          -0.5020     1.7440     0.1060 ha         1 0YY       0.112000
     28 H6           2.9260    -1.8000    -0.0410 ha         1 0YY       0.132000
     29 H7           0.5800    -2.4160     0.0050 ha         1 0YY       0.112000
     30 H8          -2.4120     0.7260     0.9920 h1         1 0YY       0.031700
     31 H9          -2.3980     0.7710    -0.7760 h1         1 0YY       0.031700
     32 H10         -3.8020    -1.2900    -0.8350 hc         1 0YY       0.052700
     33 H11         -3.8200    -1.3350     0.9200 hc         1 0YY       0.052700
     34 H12         -4.9390     0.9050     0.9690 hc         1 0YY       0.038200
     35 H13         -4.9110     0.9630    -0.7800 hc         1 0YY       0.038200
     36 H14         -6.3330    -1.0940    -0.8730 hc         1 0YY       0.038700
     37 H15         -6.3640    -1.1540     0.8750 hc         1 0YY       0.038700
     38 H16         -7.4810     1.0850     0.9360 hc         1 0YY       0.036700
     39 H17         -7.4390     1.1550    -0.8120 hc         1 0YY       0.036700
     40 H18         -8.8620    -0.9030    -0.9290 hc         1 0YY       0.036700
     41 H19         -8.9030    -0.9770     0.8170 hc         1 0YY       0.036700
     42 H20        -10.0270     1.2560     0.8880 hc         1 0YY       0.036200
     43 H21         -9.9770     1.3390    -0.8570 hc         1 0YY       0.036200
     44 H22        -11.4250    -0.7130    -1.0040 hc         1 0YY       0.029700
     45 H23        -11.4750    -0.8020     0.7520 hc         1 0YY       0.029700
     46 H24        -12.2210     0.5570    -0.0820 hc         1 0YY       0.029700
@<TRIPOS>BOND
     1     1     2 1   
     2     2     3 1   
     3     2     4 1   
     4     4     5 1   
     5     4     6 2   
     6     5    24 1   
     7     6     7 1   
     8     6    25 1   
     9     7     8 2   
    10     7     9 1   
    11     9    10 ar  
    12     9    12 ar  
    13    10    11 ar  
    14    10    26 1   
    15    11    14 ar  
    16    11    27 1   
    17    12    13 ar  
    18    12    28 1   
    19    13    14 ar  
    20    13    29 1   
    21    14    15 1   
    22    15    16 1   
    23    16    17 1   
    24    16    30 1   
    25    16    31 1   
    26    17    18 1   
    27    17    32 1   
    28    17    33 1   
    29    18    19 1   
    30    18    34 1   
    31    18    35 1   
    32    19    20 1   
    33    19    36 1   
    34    19    37 1   
    35    20    21 1   
    36    20    38 1   
    37    20    39 1   
    38    21    22 1   
    39    21    40 1   
    40    21    41 1   
    41    22    23 1   
    42    22    42 1   
    43    22    43 1   
    44    23    44 1   
    45    23    45 1   
    46    23    46 1   
@<TRIPOS>SUBSTRUCTURE
     1 0YY         1 TEMP              0 ****  ****    0 ROOT
