@<TRIPOS>MOLECULE
0YY
   46    46     1     0     0
SMALL
No Charge or Current Charge


@<TRIPOS>ATOM
      1 OAB          7.2000    -2.0020    -1.2390 o          1 0YY      -0.684500
      2 CAS          7.5810    -0.9260    -0.7890 c          1 0YY       0.710200
      3 OAD          8.7700    -0.6230    -0.7420 o          1 0YY      -0.684500
      4 CAU          6.5220     0.0760    -0.2640 ce         1 0YY       0.152900
      5 OAE          6.9690     1.2630     0.2320 oh         1 0YY      -0.512100
      6 CAF          5.1710    -0.1470    -0.2640 cf         1 0YY      -0.534200
      7 CAT          4.1290     0.7950     0.2220 c          1 0YY       0.597900
      8 OAC          4.4740     1.8980     0.6310 o          1 0YY      -0.665100
      9 CAW          2.6740     0.3970     0.2100 ca         1 0YY      -0.165600
     10 CAJ          1.6800     1.3940     0.1130 ca         1 0YY      -0.031000
     11 CAH          0.3170     1.0500     0.1040 ca         1 0YY      -0.198500
     12 CAI          2.2760    -0.9550     0.3150 ca         1 0YY      -0.031000
     13 CAG          0.9130    -1.2950     0.3060 ca         1 0YY      -0.198500
     14 CAV         -0.0710    -0.3020     0.1980 ca         1 0YY       0.147100
     15 OAR         -1.3920    -0.7000     0.1950 os         1 0YY      -0.354100
     16 CAQ         -2.4740     0.2400     0.0900 c3         1 0YY       0.168600
     17 CAP         -3.7920    -0.5570     0.1180 c3         1 0YY      -0.082400
     18 CAO         -5.0430     0.3440     0.0120 c3         1 0YY      -0.073400
     19 CAN         -6.3650    -0.4530     0.0400 c3         1 0YY      -0.074400
     20 CAM         -7.6150     0.4480    -0.0650 c3         1 0YY      -0.075400
     21 CAL         -8.9380    -0.3490    -0.0370 c3         1 0YY      -0.075400
     22 CAK        -10.1890     0.5520    -0.1420 c3         1 0YY      -0.075400
     23 CAA        -11.5090    -0.2420    -0.1140 c3         1 0YY      -0.088100
     24 H2           6.1220     1.7230     0.4760 ho         1 0YY       0.490000
     25 H3           4.8180    -1.0910    -0.6730 ha         1 0YY       0.212000
     26 H4           1.9650     2.4420     0.0390 ha         1 0YY       0.132000
     27 H5          -0.4190     1.8450     0.0230 ha         1 0YY       0.112000
     28 H6           3.0140    -1.7470     0.4240 ha         1 0YY       0.132000
     29 H7           0.6170    -2.3380     0.3890 ha         1 0YY       0.112000
     30 H8          -2.4560     0.9480     0.9300 h1         1 0YY       0.031700
     31 H9          -2.4070     0.8050    -0.8490 h1         1 0YY       0.031700
     32 H10         -3.7920    -1.2760    -0.7110 hc         1 0YY       0.052700
     33 H11         -3.8400    -1.1350     1.0490 hc         1 0YY       0.052700
     34 H12         -5.0380     1.0640     0.8400 hc         1 0YY       0.038200
     35 H13         -4.9910     0.9240    -0.9180 hc         1 0YY       0.038200
     36 H14         -6.3700    -1.1730    -0.7880 hc         1 0YY       0.038700
     37 H15         -6.4170    -1.0340     0.9700 hc         1 0YY       0.038700
     38 H16         -7.6110     1.1680     0.7630 hc         1 0YY       0.036700
     39 H17         -7.5640     1.0280    -0.9950 hc         1 0YY       0.036700
     40 H18         -8.9430    -1.0690    -0.8650 hc         1 0YY       0.036700
     41 H19         -8.9900    -0.9290     0.8930 hc         1 0YY       0.036700
     42 H20        -10.1890     1.2720     0.6850 hc         1 0YY       0.036200
     43 H21        -10.1420     1.1320    -1.0720 hc         1 0YY       0.036200
     44 H22        -11.5550    -0.9480    -0.9520 hc         1 0YY       0.029700
     45 H23        -11.6020    -0.8070     0.8210 hc         1 0YY       0.029700
     46 H24        -12.3650     0.4380    -0.1910 hc         1 0YY       0.029700
@<TRIPOS>BOND
     1     1     2 1   
     2     2     3 1   
     3     2     4 1   
     4     4     5 1   
     5     4     6 2   
     6     5    24 1   
     7     6     7 1   
     8     6    25 1   
     9     7     8 2   
    10     7     9 1   
    11     9    10 ar  
    12     9    12 ar  
    13    10    11 ar  
    14    10    26 1   
    15    11    14 ar  
    16    11    27 1   
    17    12    13 ar  
    18    12    28 1   
    19    13    14 ar  
    20    13    29 1   
    21    14    15 1   
    22    15    16 1   
    23    16    17 1   
    24    16    30 1   
    25    16    31 1   
    26    17    18 1   
    27    17    32 1   
    28    17    33 1   
    29    18    19 1   
    30    18    34 1   
    31    18    35 1   
    32    19    20 1   
    33    19    36 1   
    34    19    37 1   
    35    20    21 1   
    36    20    38 1   
    37    20    39 1   
    38    21    22 1   
    39    21    40 1   
    40    21    41 1   
    41    22    23 1   
    42    22    42 1   
    43    22    43 1   
    44    23    44 1   
    45    23    45 1   
    46    23    46 1   
@<TRIPOS>SUBSTRUCTURE
     1 0YY         1 TEMP              0 ****  ****    0 ROOT
