@<TRIPOS>MOLECULE
0YZ
   52    52     1     0     0
SMALL
abcg2


@<TRIPOS>ATOM
      1 OAB          8.5770    -0.8130    -0.6920 o          1 0YZ      -0.683500
      2 CAU          8.4700     0.4060    -0.4830 c          1 0YZ       0.711200
      3 OAD          9.3500     1.2770    -0.4820 o          1 0YZ      -0.683500
      4 CAW          7.0460     0.9060    -0.1870 ce         1 0YZ       0.153900
      5 OAE          6.9420     2.1910     0.0490 oh         1 0YZ      -0.509100
      6 CAF          5.9710     0.0630    -0.1750 cf         1 0YZ      -0.533200
      7 CAV          4.6540     0.5630     0.0930 c          1 0YZ       0.590900
      8 OAC          4.4600     1.7700     0.3220 o          1 0YZ      -0.657100
      9 CAY          3.4850    -0.3620     0.0880 ca         1 0YZ      -0.095600
     10 CAJ          2.2100     0.1890     0.1450 ca         1 0YZ      -0.104000
     11 CAI          3.6330    -1.7500     0.0340 ca         1 0YZ      -0.100000
     12 CAG          2.5090    -2.5550     0.0350 ca         1 0YZ      -0.101000
     13 CAH          1.2320    -2.0100     0.0820 ca         1 0YZ      -0.196000
     14 CAX          1.0790    -0.6250     0.1370 ca         1 0YZ       0.116100
     15 OAT         -0.1070     0.0060     0.1850 os         1 0YZ      -0.352100
     16 CAS         -1.3000    -0.7620     0.1240 c3         1 0YZ       0.169600
     17 CAR         -2.4810     0.1860     0.1380 c3         1 0YZ      -0.081400
     18 CAQ         -3.8010    -0.5730     0.0710 c3         1 0YZ      -0.074400
     19 CAP         -5.0130     0.3510     0.0750 c3         1 0YZ      -0.074400
     20 CAO         -6.3350    -0.4010     0.0010 c3         1 0YZ      -0.074400
     21 CAN         -7.5510     0.5180     0.0020 c3         1 0YZ      -0.074400
     22 CAM         -8.8730    -0.2340    -0.0730 c3         1 0YZ      -0.074400
     23 CAL        -10.0880     0.6860    -0.0720 c3         1 0YZ      -0.076400
     24 CAK        -11.4140    -0.0630    -0.1430 c3         1 0YZ      -0.075400
     25 CAA        -12.6180     0.8690    -0.1410 c3         1 0YZ      -0.088100
     26 H2           5.9760     2.3690     0.2140 ho         1 0YZ       0.490000
     27 H3           6.1480    -0.9770    -0.3900 ha         1 0YZ       0.213000
     28 H4           2.0840     1.2630     0.1880 ha         1 0YZ       0.144000
     29 H5           4.6100    -2.2110     0.0020 ha         1 0YZ       0.136000
     30 H6           2.6190    -3.6310    -0.0020 ha         1 0YZ       0.103000
     31 H7           0.3790    -2.6740     0.0760 ha         1 0YZ       0.102000
     32 H8          -1.3140    -1.3700    -0.7880 h1         1 0YZ       0.028700
     33 H9          -1.3560    -1.4470     0.9780 h1         1 0YZ       0.028700
     34 H10         -2.4510     0.7950     1.0460 hc         1 0YZ       0.054700
     35 H11         -2.4070     0.8720    -0.7110 hc         1 0YZ       0.054700
     36 H12         -3.8230    -1.1930    -0.8320 hc         1 0YZ       0.036700
     37 H13         -3.8720    -1.2640     0.9170 hc         1 0YZ       0.036700
     38 H14         -4.9950     0.9700     0.9790 hc         1 0YZ       0.039700
     39 H15         -4.9410     1.0460    -0.7690 hc         1 0YZ       0.039700
     40 H16         -6.3510    -1.0210    -0.9020 hc         1 0YZ       0.036200
     41 H17         -6.4060    -1.0950     0.8460 hc         1 0YZ       0.036200
     42 H18         -7.5350     1.1390     0.9050 hc         1 0YZ       0.037700
     43 H19         -7.4790     1.2120    -0.8430 hc         1 0YZ       0.037700
     44 H20         -8.8880    -0.8540    -0.9770 hc         1 0YZ       0.036200
     45 H21         -8.9450    -0.9290     0.7710 hc         1 0YZ       0.036200
     46 H22        -10.0720     1.3080     0.8310 hc         1 0YZ       0.036700
     47 H23        -10.0180     1.3790    -0.9170 hc         1 0YZ       0.036700
     48 H24        -11.4300    -0.6850    -1.0440 hc         1 0YZ       0.035700
     49 H25        -11.4840    -0.7550     0.7020 hc         1 0YZ       0.035700
     50 H26        -12.6400     1.4800     0.7630 hc         1 0YZ       0.030700
     51 H27        -12.5900     1.5470    -0.9960 hc         1 0YZ       0.030700
     52 H28        -13.5570     0.3160    -0.1890 hc         1 0YZ       0.030700
@<TRIPOS>BOND
     1     1     2 1   
     2     2     3 1   
     3     2     4 1   
     4     4     5 1   
     5     4     6 2   
     6     5    26 1   
     7     6     7 1   
     8     6    27 1   
     9     7     8 2   
    10     7     9 1   
    11     9    10 ar  
    12     9    11 ar  
    13    10    14 ar  
    14    10    28 1   
    15    11    12 ar  
    16    11    29 1   
    17    12    13 ar  
    18    12    30 1   
    19    13    14 ar  
    20    13    31 1   
    21    14    15 1   
    22    15    16 1   
    23    16    17 1   
    24    16    32 1   
    25    16    33 1   
    26    17    18 1   
    27    17    34 1   
    28    17    35 1   
    29    18    19 1   
    30    18    36 1   
    31    18    37 1   
    32    19    20 1   
    33    19    38 1   
    34    19    39 1   
    35    20    21 1   
    36    20    40 1   
    37    20    41 1   
    38    21    22 1   
    39    21    42 1   
    40    21    43 1   
    41    22    23 1   
    42    22    44 1   
    43    22    45 1   
    44    23    24 1   
    45    23    46 1   
    46    23    47 1   
    47    24    25 1   
    48    24    48 1   
    49    24    49 1   
    50    25    50 1   
    51    25    51 1   
    52    25    52 1   
@<TRIPOS>SUBSTRUCTURE
     1 0YZ         1 TEMP              0 ****  ****    0 ROOT
