@<TRIPOS>MOLECULE
0YZ
   52    52     1     0     0
SMALL
No Charge or Current Charge


@<TRIPOS>ATOM
      1 OAB          8.6680    -0.5800    -1.3430 o          1 0YZ      -0.683500
      2 CAU          8.5870     0.5290    -0.8250 c          1 0YZ       0.711200
      3 OAD          9.5500     1.2870    -0.7550 o          1 0YZ      -0.683500
      4 CAW          7.2230     0.9800    -0.2450 ce         1 0YZ       0.153900
      5 OAE          7.1590     2.2150     0.3250 oh         1 0YZ      -0.509100
      6 CAF          6.0800     0.2250    -0.2650 cf         1 0YZ      -0.533200
      7 CAV          4.7540     0.6300     0.2740 c          1 0YZ       0.590900
      8 OAC          4.6300     1.7530     0.7520 o          1 0YZ      -0.657100
      9 CAY          3.5840    -0.3290     0.2290 ca         1 0YZ      -0.095600
     10 CAJ          2.2650     0.1790     0.2090 ca         1 0YZ      -0.104000
     11 CAI          3.7690    -1.7300     0.2280 ca         1 0YZ      -0.100000
     12 CAG          2.6630    -2.5960     0.1910 ca         1 0YZ      -0.101000
     13 CAH          1.3580    -2.0780     0.1590 ca         1 0YZ      -0.196000
     14 CAX          1.1560    -0.6820     0.1710 ca         1 0YZ       0.116100
     15 OAT         -0.1010    -0.1140     0.1470 os         1 0YZ      -0.352100
     16 CAS         -1.2990    -0.9080     0.1070 c3         1 0YZ       0.169600
     17 CAR         -2.5000     0.0570     0.0890 c3         1 0YZ      -0.081400
     18 CAQ         -3.8600    -0.6760     0.0460 c3         1 0YZ      -0.074400
     19 CAP         -5.0660     0.2890     0.0270 c3         1 0YZ      -0.074400
     20 CAO         -6.4250    -0.4440    -0.0160 c3         1 0YZ      -0.074400
     21 CAN         -7.6310     0.5210    -0.0340 c3         1 0YZ      -0.074400
     22 CAM         -8.9900    -0.2120    -0.0770 c3         1 0YZ      -0.074400
     23 CAL        -10.1960     0.7520    -0.0960 c3         1 0YZ      -0.076400
     24 CAK        -11.5550     0.0200    -0.1380 c3         1 0YZ      -0.075400
     25 CAA        -12.7590     0.9820    -0.1570 c3         1 0YZ      -0.088100
     26 H2           6.2050     2.2770     0.5940 ho         1 0YZ       0.490000
     27 H3           6.1350    -0.7550    -0.7330 ha         1 0YZ       0.213000
     28 H4           2.0970     1.2530     0.2180 ha         1 0YZ       0.144000
     29 H5           4.7670    -2.1610     0.2750 ha         1 0YZ       0.136000
     30 H6           2.8190    -3.6730     0.1910 ha         1 0YZ       0.103000
     31 H7           0.5220    -2.7710     0.1310 ha         1 0YZ       0.102000
     32 H8          -1.3190    -1.5350    -0.7940 h1         1 0YZ       0.028700
     33 H9          -1.3640    -1.5570     0.9900 h1         1 0YZ       0.028700
     34 H10         -2.4600     0.6940     0.9810 hc         1 0YZ       0.054700
     35 H11         -2.4160     0.7150    -0.7840 hc         1 0YZ       0.054700
     36 H12         -3.8960    -1.3150    -0.8450 hc         1 0YZ       0.036700
     37 H13         -3.9400    -1.3370     0.9180 hc         1 0YZ       0.036700
     38 H14         -5.0290     0.9290     0.9180 hc         1 0YZ       0.039700
     39 H15         -4.9850     0.9500    -0.8450 hc         1 0YZ       0.039700
     40 H16         -6.4610    -1.0830    -0.9070 hc         1 0YZ       0.036200
     41 H17         -6.5050    -1.1040     0.8560 hc         1 0YZ       0.036200
     42 H18         -7.5940     1.1600     0.8570 hc         1 0YZ       0.037700
     43 H19         -7.5500     1.1810    -0.9070 hc         1 0YZ       0.037700
     44 H20         -9.0260    -0.8510    -0.9680 hc         1 0YZ       0.036200
     45 H21         -9.0700    -0.8730     0.7950 hc         1 0YZ       0.036200
     46 H22        -10.1600     1.3920     0.7950 hc         1 0YZ       0.036700
     47 H23        -10.1160     1.4130    -0.9680 hc         1 0YZ       0.036700
     48 H24        -11.5960    -0.6190    -1.0290 hc         1 0YZ       0.035700
     49 H25        -11.6400    -0.6400     0.7340 hc         1 0YZ       0.035700
     50 H26        -12.7660     1.6120     0.7410 hc         1 0YZ       0.030700
     51 H27        -12.7210     1.6330    -1.0380 hc         1 0YZ       0.030700
     52 H28        -13.6980     0.4170    -0.1870 hc         1 0YZ       0.030700
@<TRIPOS>BOND
     1     1     2 1   
     2     2     3 1   
     3     2     4 1   
     4     4     5 1   
     5     4     6 2   
     6     5    26 1   
     7     6     7 1   
     8     6    27 1   
     9     7     8 2   
    10     7     9 1   
    11     9    10 ar  
    12     9    11 ar  
    13    10    14 ar  
    14    10    28 1   
    15    11    12 ar  
    16    11    29 1   
    17    12    13 ar  
    18    12    30 1   
    19    13    14 ar  
    20    13    31 1   
    21    14    15 1   
    22    15    16 1   
    23    16    17 1   
    24    16    32 1   
    25    16    33 1   
    26    17    18 1   
    27    17    34 1   
    28    17    35 1   
    29    18    19 1   
    30    18    36 1   
    31    18    37 1   
    32    19    20 1   
    33    19    38 1   
    34    19    39 1   
    35    20    21 1   
    36    20    40 1   
    37    20    41 1   
    38    21    22 1   
    39    21    42 1   
    40    21    43 1   
    41    22    23 1   
    42    22    44 1   
    43    22    45 1   
    44    23    24 1   
    45    23    46 1   
    46    23    47 1   
    47    24    25 1   
    48    24    48 1   
    49    24    49 1   
    50    25    50 1   
    51    25    51 1   
    52    25    52 1   
@<TRIPOS>SUBSTRUCTURE
     1 0YZ         1 TEMP              0 ****  ****    0 ROOT
