@<TRIPOS>MOLECULE
0Z0
   52    53     1     0     0
SMALL
No Charge or Current Charge


@<TRIPOS>ATOM
      1 C1          -4.7440    -0.9890     0.6390 c          1 0Z0       0.557100
      2 C2          -6.2140    -1.4950     0.6820 c3         1 0Z0       0.223000
      3 O           -4.0080    -0.9820     1.6200 o          1 0Z0      -0.543100
      4 F1          -6.5590    -1.9580     1.9080 f          1 0Z0      -0.103000
      5 F2          -7.0830    -0.5050     0.3680 f          1 0Z0      -0.103000
      6 F3          -6.4150    -2.5050    -0.1980 f          1 0Z0      -0.103000
      7 N           -4.3170    -0.5370    -0.6020 ns         1 0Z0      -0.465900
      8 CA          -2.9910     0.0660    -0.8940 c3         1 0Z0       0.042700
      9 C           -1.8480    -0.9990    -0.8550 c          1 0Z0       0.599100
     10 O1          -2.0490    -2.1990    -0.7070 o          1 0Z0      -0.588100
     11 CB          -2.7040     1.3350    -0.0390 c3         1 0Z0      -0.045100
     12 CG          -3.8940     2.2910     0.0230 ca         1 0Z0      -0.092300
     13 CD1         -4.6030     2.4730     1.2270 ca         1 0Z0      -0.106500
     14 CD2         -4.3000     2.9910    -1.1300 ca         1 0Z0      -0.106500
     15 CE1         -5.7070     3.3410     1.2760 ca         1 0Z0      -0.106500
     16 CE2         -5.4030     3.8610    -1.0800 ca         1 0Z0      -0.106500
     17 CZ          -6.1080     4.0350     0.1230 ca         1 0Z0      -0.105000
     18 N1          -0.5660    -0.5040    -1.0030 ns         1 0Z0      -0.495900
     19 CA1          0.6710    -1.3210    -1.0040 c3         1 0Z0       0.032700
     20 C3           1.9070    -0.4430    -0.6450 c          1 0Z0       0.602100
     21 O2           1.8340     0.7810    -0.5740 o          1 0Z0      -0.578100
     22 CB1          0.8430    -2.0410    -2.3640 c3         1 0Z0      -0.113100
     23 N2           3.0700    -1.1700    -0.4160 ns         1 0Z0      -0.139000
     24 C11          4.3920    -0.7800    -0.0660 ca         1 0Z0       0.010000
     25 C21          4.7810     0.5560     0.1700 ca         1 0Z0      -0.159000
     26 C31          6.1090     0.8640     0.5130 ca         1 0Z0      -0.030000
     27 C4           7.0770    -0.1550     0.6230 ca         1 0Z0      -0.227300
     28 C5           6.6870    -1.4910     0.3980 ca         1 0Z0      -0.030000
     29 C6           5.3580    -1.7950     0.0560 ca         1 0Z0      -0.159000
     30 C7           8.5220     0.1810     1.0080 c3         1 0Z0       0.361300
     31 F11          8.6890     0.1660     2.3490 f          1 0Z0      -0.114333
     32 F21          9.4110    -0.6970     0.4890 f          1 0Z0      -0.114333
     33 F31          8.8970     1.4070     0.5770 f          1 0Z0      -0.114333
     34 H           -4.9940    -0.5920    -1.3560 hn         1 0Z0       0.346500
     35 HA          -3.0280     0.3990    -1.9400 h1         1 0Z0       0.073700
     36 HB2         -2.4080     1.0310     0.9730 hc         1 0Z0       0.069700
     37 HB3         -1.8400     1.8690    -0.4520 hc         1 0Z0       0.069700
     38 HD1         -4.3030     1.9380     2.1260 ha         1 0Z0       0.114500
     39 HD2         -3.7610     2.8620    -2.0660 ha         1 0Z0       0.114500
     40 HE1         -6.2520     3.4750     2.2080 ha         1 0Z0       0.116500
     41 HE2         -5.7120     4.3980    -1.9740 ha         1 0Z0       0.116500
     42 HZ          -6.9630     4.7070     0.1610 ha         1 0Z0       0.116000
     43 H1          -0.4690     0.5000    -1.1120 hn         1 0Z0       0.340500
     44 HA1          0.5870    -2.0800    -0.2140 h1         1 0Z0       0.091700
     45 HB1          1.7300    -2.6870    -2.3600 hc         1 0Z0       0.053033
     46 HB21        -0.0260    -2.6720    -2.5850 hc         1 0Z0       0.053033
     47 HB31         0.9520    -1.3130    -3.1780 hc         1 0Z0       0.053033
     48 HN1          2.9560    -2.1700    -0.5180 hn         1 0Z0       0.159000
     49 H2           4.0720     1.3740     0.0970 ha         1 0Z0       0.136000
     50 H3           6.3790     1.9030     0.6960 ha         1 0Z0       0.132000
     51 H5           7.4080    -2.3010     0.4900 ha         1 0Z0       0.132000
     52 H6           5.0810    -2.8330    -0.1150 ha         1 0Z0       0.136000
@<TRIPOS>BOND
     1     1     2 1   
     2     1     3 2   
     3     1     7 1   
     4     2     4 1   
     5     2     5 1   
     6     2     6 1   
     7     7     8 1   
     8     7    34 1   
     9     8     9 1   
    10     8    11 1   
    11     8    35 1   
    12     9    10 2   
    13     9    18 1   
    14    11    12 1   
    15    11    36 1   
    16    11    37 1   
    17    12    13 ar  
    18    12    14 ar  
    19    13    15 ar  
    20    13    38 1   
    21    14    16 ar  
    22    14    39 1   
    23    15    17 ar  
    24    15    40 1   
    25    16    17 ar  
    26    16    41 1   
    27    17    42 1   
    28    18    19 1   
    29    18    43 1   
    30    19    20 1   
    31    19    22 1   
    32    19    44 1   
    33    20    21 2   
    34    20    23 1   
    35    22    45 1   
    36    22    46 1   
    37    22    47 1   
    38    23    24 1   
    39    23    48 1   
    40    24    25 ar  
    41    24    29 ar  
    42    25    26 ar  
    43    25    49 1   
    44    26    27 ar  
    45    26    50 1   
    46    27    28 ar  
    47    27    30 1   
    48    28    29 ar  
    49    28    51 1   
    50    29    52 1   
    51    30    31 1   
    52    30    32 1   
    53    30    33 1   
@<TRIPOS>SUBSTRUCTURE
     1 0Z0         1 TEMP              0 ****  ****    0 ROOT
