@<TRIPOS>MOLECULE
0Z0
   52    53     1     0     0
SMALL
abcg2


@<TRIPOS>ATOM
      1 C1          -4.1590    -0.9780     0.8660 c          1 0Z0       0.557100
      2 C2          -5.5010    -1.5570     1.3410 c3         1 0Z0       0.223000
      3 O           -3.2410    -0.9320     1.6600 o          1 0Z0      -0.543100
      4 F1          -5.2960    -2.6470     2.0700 f          1 0Z0      -0.103000
      5 F2          -6.1260    -0.6610     2.1080 f          1 0Z0      -0.103000
      6 F3          -6.3220    -1.8800     0.3400 f          1 0Z0      -0.103000
      7 N           -4.1350    -0.5280    -0.3840 ns         1 0Z0      -0.465900
      8 CA          -2.9550     0.0840    -0.9470 c3         1 0Z0       0.042700
      9 C           -1.8030    -0.9330    -0.9570 c          1 0Z0       0.599100
     10 O1          -2.0210    -2.1320    -0.9360 o          1 0Z0      -0.588100
     11 CB          -2.6290     1.4430    -0.3000 c3         1 0Z0      -0.045100
     12 CG          -3.8470     2.3200    -0.2280 ca         1 0Z0      -0.092300
     13 CD1         -4.5600     2.4580     0.9590 ca         1 0Z0      -0.106500
     14 CD2         -4.3070     2.9810    -1.3650 ca         1 0Z0      -0.106500
     15 CE1         -5.7070     3.2390     1.0120 ca         1 0Z0      -0.106500
     16 CE2         -5.4530     3.7620    -1.3170 ca         1 0Z0      -0.106500
     17 CZ          -6.1580     3.8920    -0.1270 ca         1 0Z0      -0.105000
     18 N1          -0.5730    -0.4120    -1.0550 ns         1 0Z0      -0.495900
     19 CA1          0.6070    -1.2270    -1.1990 c3         1 0Z0       0.032700
     20 C3           1.8020    -0.4270    -0.6900 c          1 0Z0       0.602100
     21 O2           1.7760     0.7860    -0.6140 o          1 0Z0      -0.578100
     22 CB1          0.8480    -1.6450    -2.6520 c3         1 0Z0      -0.113100
     23 N2           2.8730    -1.1990    -0.3880 ns         1 0Z0      -0.139000
     24 C11          4.1560    -0.8200     0.0020 ca         1 0Z0       0.010000
     25 C21          4.5690     0.4990     0.1920 ca         1 0Z0      -0.159000
     26 C31          5.8740     0.7620     0.5780 ca         1 0Z0      -0.030000
     27 C4           6.7840    -0.2660     0.7780 ca         1 0Z0      -0.227300
     28 C5           6.3710    -1.5820     0.5940 ca         1 0Z0      -0.030000
     29 C6           5.0740    -1.8530     0.2100 ca         1 0Z0      -0.159000
     30 C7           8.1750     0.0210     1.2390 c3         1 0Z0       0.361300
     31 F11          8.2930    -0.0850     2.5730 f          1 0Z0      -0.114333
     32 F21          9.0660    -0.8310     0.7130 f          1 0Z0      -0.114333
     33 F31          8.5770     1.2560     0.9170 f          1 0Z0      -0.114333
     34 H           -4.9410    -0.6270    -0.9800 hn         1 0Z0       0.346500
     35 HA          -3.1930     0.2680    -1.9980 h1         1 0Z0       0.073700
     36 HB2         -2.2010     1.3030     0.6930 hc         1 0Z0       0.069700
     37 HB3         -1.8760     1.9450    -0.9120 hc         1 0Z0       0.069700
     38 HD1         -4.2100     1.9570     1.8540 ha         1 0Z0       0.114500
     39 HD2         -3.7630     2.8870    -2.2990 ha         1 0Z0       0.114500
     40 HE1         -6.2490     3.3360     1.9440 ha         1 0Z0       0.116500
     41 HE2         -5.7930     4.2730    -2.2090 ha         1 0Z0       0.116500
     42 HZ          -7.0510     4.5020    -0.0880 ha         1 0Z0       0.116000
     43 H1          -0.4420     0.5850    -1.1200 hn         1 0Z0       0.340500
     44 HA1          0.4910    -2.1230    -0.5850 h1         1 0Z0       0.091700
     45 HB1          1.7250    -2.2850    -2.7400 hc         1 0Z0       0.053033
     46 HB21        -0.0110    -2.2030    -3.0220 hc         1 0Z0       0.053033
     47 HB31         0.9920    -0.7710    -3.2880 hc         1 0Z0       0.053033
     48 HN1          2.7360    -2.1970    -0.4690 hn         1 0Z0       0.159000
     49 H2           3.8920     1.3240     0.0490 ha         1 0Z0       0.136000
     50 H3           6.1640     1.7950     0.7180 ha         1 0Z0       0.132000
     51 H5           7.0520    -2.4090     0.7440 ha         1 0Z0       0.132000
     52 H6           4.7690    -2.8820     0.0660 ha         1 0Z0       0.136000
@<TRIPOS>BOND
     1     1     2 1   
     2     1     3 2   
     3     1     7 1   
     4     2     4 1   
     5     2     5 1   
     6     2     6 1   
     7     7     8 1   
     8     7    34 1   
     9     8     9 1   
    10     8    11 1   
    11     8    35 1   
    12     9    10 2   
    13     9    18 1   
    14    11    12 1   
    15    11    36 1   
    16    11    37 1   
    17    12    13 ar  
    18    12    14 ar  
    19    13    15 ar  
    20    13    38 1   
    21    14    16 ar  
    22    14    39 1   
    23    15    17 ar  
    24    15    40 1   
    25    16    17 ar  
    26    16    41 1   
    27    17    42 1   
    28    18    19 1   
    29    18    43 1   
    30    19    20 1   
    31    19    22 1   
    32    19    44 1   
    33    20    21 2   
    34    20    23 1   
    35    22    45 1   
    36    22    46 1   
    37    22    47 1   
    38    23    24 1   
    39    23    48 1   
    40    24    25 ar  
    41    24    29 ar  
    42    25    26 ar  
    43    25    49 1   
    44    26    27 ar  
    45    26    50 1   
    46    27    28 ar  
    47    27    30 1   
    48    28    29 ar  
    49    28    51 1   
    50    29    52 1   
    51    30    31 1   
    52    30    32 1   
    53    30    33 1   
@<TRIPOS>SUBSTRUCTURE
     1 0Z0         1 TEMP              0 ****  ****    0 ROOT
