@<TRIPOS>MOLECULE
0Z1
   64    65     1     0     0
SMALL
abcg2


@<TRIPOS>ATOM
      1 C1          -3.6410    -1.4670    -0.7950 c          1 0Z1       0.561100
      2 C2          -4.5960    -2.3430    -1.6350 c3         1 0Z1       0.216000
      3 O           -3.0790    -1.9590     0.1570 o          1 0Z1      -0.521100
      4 F1          -4.6040    -3.5870    -1.1840 f          1 0Z1      -0.099000
      5 F2          -5.8470    -1.8760    -1.5890 f          1 0Z1      -0.099000
      6 F3          -4.2240    -2.3690    -2.9190 f          1 0Z1      -0.099000
      7 N           -3.5800    -0.2040    -1.2250 ns         1 0Z1      -0.487900
      8 CA          -2.7070     0.8390    -0.7240 c3         1 0Z1       0.051700
      9 C           -1.2950     0.6450    -1.2770 c          1 0Z1       0.587100
     10 O1          -0.8270    -0.4720    -1.4370 o          1 0Z1      -0.562100
     11 CB          -2.6560     0.9630     0.8030 c3         1 0Z1      -0.086400
     12 CG          -4.0210     1.2110     1.4280 c3         1 0Z1      -0.064400
     13 CD          -3.9200     1.3680     2.9410 c3         1 0Z1      -0.108400
     14 CE          -5.2780     1.6550     3.5460 c3         1 0Z1       0.098600
     15 NZ          -5.1890     1.7830     5.0250 nz         1 0Z1      -0.974000
     16 N1          -0.5980     1.7580    -1.5500 n          1 0Z1      -0.399800
     17 CA1          0.7790     1.6520    -1.9770 c5         1 0Z1       0.022700
     18 C3           1.6540     1.2070    -0.8050 c          1 0Z1       0.604100
     19 O2           1.3370     1.4240     0.3480 o          1 0Z1      -0.594100
     20 CB1          1.1210     3.0820    -2.4160 c5         1 0Z1      -0.083400
     21 CG1          0.2490     3.9470    -1.5140 c5         1 0Z1      -0.092400
     22 CD1         -1.0400     3.1430    -1.3850 c5         1 0Z1       0.108000
     23 C11          3.8620     0.1280    -0.4130 ca         1 0Z1      -0.032000
     24 N11          2.8030     0.6090    -1.1940 ns         1 0Z1      -0.133000
     25 C21          4.8560    -0.5950    -1.0720 ca         1 0Z1      -0.144000
     26 C31          5.9400    -1.1030    -0.3760 ca         1 0Z1      -0.080500
     27 C4           6.0760    -0.9140     0.9960 ca         1 0Z1      -0.088300
     28 C5           5.0780    -0.1860     1.6400 ca         1 0Z1      -0.080500
     29 C6           3.9840     0.3320     0.9620 ca         1 0Z1      -0.144000
     30 C7           7.2600    -1.4720     1.7500 c3         1 0Z1      -0.014400
     31 C8           8.1620    -0.3550     2.2750 c3         1 0Z1      -0.085100
     32 C9           6.8220    -2.3990     2.8820 c3         1 0Z1      -0.085100
     33 H           -4.0900     0.0460    -2.0580 hn         1 0Z1       0.335500
     34 HA          -3.1360     1.7620    -1.1180 h1         1 0Z1       0.061700
     35 HB2         -2.1880     0.0820     1.2400 hc         1 0Z1       0.081700
     36 HB3         -1.9980     1.8040     1.0370 hc         1 0Z1       0.081700
     37 HG2         -4.4640     2.1120     0.9930 hc         1 0Z1       0.054700
     38 HG3         -4.7020     0.3880     1.2000 hc         1 0Z1       0.054700
     39 HD2         -3.5070     0.4540     3.3780 hc         1 0Z1       0.071200
     40 HD3         -3.2300     2.1810     3.1840 hc         1 0Z1       0.071200
     41 HE2         -5.6950     2.5890     3.1760 hx         1 0Z1       0.105700
     42 HE3         -5.9870     0.8540     3.3450 hx         1 0Z1       0.105700
     43 HZ1         -4.8700     0.9200     5.4640 hn         1 0Z1       0.513000
     44 HZ2         -4.5430     2.5210     5.3030 hn         1 0Z1       0.513000
     45 HZ3         -6.0940     2.0090     5.4370 hn         1 0Z1       0.513000
     46 HA1          0.8750     0.9490    -2.8070 h1         1 0Z1       0.089700
     47 HB21         2.1850     3.3050    -2.3400 hc         1 0Z1       0.068200
     48 HB31         0.8330     3.2060    -3.4620 hc         1 0Z1       0.068200
     49 HG21         0.7140     4.0720    -0.5350 hc         1 0Z1       0.067700
     50 HG31         0.0680     4.9390    -1.9250 hc         1 0Z1       0.067700
     51 HD21        -1.7560     3.4100    -2.1670 h1         1 0Z1       0.041200
     52 HD31        -1.5170     3.3050    -0.4190 h1         1 0Z1       0.041200
     53 HN11         2.9060     0.4490    -2.1850 hn         1 0Z1       0.153000
     54 H2           4.7800    -0.7660    -2.1400 ha         1 0Z1       0.124000
     55 H3           6.6950    -1.6620    -0.9170 ha         1 0Z1       0.115500
     56 H5           5.1410    -0.0120     2.7080 ha         1 0Z1       0.115500
     57 H6           3.2400     0.8860     1.5090 ha         1 0Z1       0.124000
     58 H1           7.8460    -2.0660     1.0420 hc         1 0Z1       0.051700
     59 H2'1         7.6380     0.2770     2.9960 hc         1 0Z1       0.035867
     60 H2'2         9.0370    -0.7710     2.7790 hc         1 0Z1       0.035867
     61 H2'3         8.5150     0.2850     1.4660 hc         1 0Z1       0.035867
     62 H3'1         6.2000    -3.2150     2.5120 hc         1 0Z1       0.035867
     63 H3'2         7.6910    -2.8370     3.3770 hc         1 0Z1       0.035867
     64 H3'3         6.2490    -1.8600     3.6390 hc         1 0Z1       0.035867
@<TRIPOS>BOND
     1     1     2 1   
     2     1     3 2   
     3     1     7 1   
     4     2     4 1   
     5     2     5 1   
     6     2     6 1   
     7     7     8 1   
     8     7    33 1   
     9     8     9 1   
    10     8    11 1   
    11     8    34 1   
    12     9    10 2   
    13     9    16 1   
    14    11    12 1   
    15    11    35 1   
    16    11    36 1   
    17    12    13 1   
    18    12    37 1   
    19    12    38 1   
    20    13    14 1   
    21    13    39 1   
    22    13    40 1   
    23    14    15 1   
    24    14    41 1   
    25    14    42 1   
    26    15    43 1   
    27    15    44 1   
    28    15    45 1   
    29    16    17 1   
    30    16    22 1   
    31    17    18 1   
    32    17    20 1   
    33    17    46 1   
    34    18    19 2   
    35    18    24 1   
    36    20    21 1   
    37    20    47 1   
    38    20    48 1   
    39    21    22 1   
    40    21    49 1   
    41    21    50 1   
    42    22    51 1   
    43    22    52 1   
    44    23    24 1   
    45    23    25 ar  
    46    23    29 ar  
    47    24    53 1   
    48    25    26 ar  
    49    25    54 1   
    50    26    27 ar  
    51    26    55 1   
    52    27    28 ar  
    53    27    30 1   
    54    28    29 ar  
    55    28    56 1   
    56    29    57 1   
    57    30    31 1   
    58    30    32 1   
    59    30    58 1   
    60    31    59 1   
    61    31    60 1   
    62    31    61 1   
    63    32    62 1   
    64    32    63 1   
    65    32    64 1   
@<TRIPOS>SUBSTRUCTURE
     1 0Z1         1 TEMP              0 ****  ****    0 ROOT
