@<TRIPOS>MOLECULE
0Z1
   64    65     1     0     0
SMALL
No Charge or Current Charge


@<TRIPOS>ATOM
      1 C1          -3.7860    -1.6800    -0.6110 c          1 0Z1       0.561100
      2 C2          -4.8260    -2.6600    -1.2240 c3         1 0Z1       0.216000
      3 O           -3.0240    -2.0000     0.2930 o          1 0Z1      -0.521100
      4 F1          -4.7620    -3.8910    -0.6610 f          1 0Z1      -0.099000
      5 F2          -6.0900    -2.2050    -1.0520 f          1 0Z1      -0.099000
      6 F3          -4.6310    -2.8170    -2.5550 f          1 0Z1      -0.099000
      7 N           -3.7880    -0.4060    -1.1670 ns         1 0Z1      -0.487900
      8 CA          -2.9120     0.7350    -0.7840 c3         1 0Z1       0.051700
      9 C           -1.4500     0.5520    -1.3170 c          1 0Z1       0.587100
     10 O1          -1.0190    -0.5400    -1.6700 o          1 0Z1      -0.562100
     11 CB          -2.9590     1.0690     0.7370 c3         1 0Z1      -0.086400
     12 CG          -4.3820     1.3560     1.2730 c3         1 0Z1      -0.064400
     13 CD          -4.3960     1.7300     2.7710 c3         1 0Z1      -0.108400
     14 CE          -5.8140     2.0090     3.2950 c3         1 0Z1       0.098600
     15 NZ          -5.7830     2.3680     4.7570 nz         1 0Z1      -0.974000
     16 N1          -0.5920     1.6770    -1.3310 n          1 0Z1      -0.399800
     17 CA1          0.8620     1.5450    -1.6500 c5         1 0Z1       0.022700
     18 C3           1.7240     1.0540    -0.4420 c          1 0Z1       0.604100
     19 O2           1.3660     0.9900     0.7310 o          1 0Z1      -0.594100
     20 CB1          1.2450     3.0150    -2.0200 c5         1 0Z1      -0.083400
     21 CG1          0.2490     3.8480    -1.1770 c5         1 0Z1      -0.092400
     22 CD1         -1.0680     3.0750    -1.4130 c5         1 0Z1       0.108000
     23 C11          4.1270     0.1480    -0.2840 ca         1 0Z1      -0.032000
     24 N11          2.9690     0.6650    -0.9270 ns         1 0Z1      -0.133000
     25 C21          5.2250    -0.1960    -1.0950 ca         1 0Z1      -0.144000
     26 C31          6.4040    -0.7110    -0.5290 ca         1 0Z1      -0.080500
     27 C4           6.5080    -0.8900     0.8630 ca         1 0Z1      -0.088300
     28 C5           5.4120    -0.5440     1.6780 ca         1 0Z1      -0.080500
     29 C6           4.2320    -0.0290     1.1120 ca         1 0Z1      -0.144000
     30 C7           7.7960    -1.4510     1.4720 c3         1 0Z1      -0.014400
     31 C8           8.4690    -0.4270     2.4130 c3         1 0Z1      -0.085100
     32 C9           7.5450    -2.8000     2.1820 c3         1 0Z1      -0.085100
     33 H           -4.4540    -0.2550    -1.9200 hn         1 0Z1       0.335500
     34 HA          -3.3120     1.6090    -1.3140 h1         1 0Z1       0.061700
     35 HB2         -2.5100     0.2520     1.3130 hc         1 0Z1       0.081700
     36 HB3         -2.3280     1.9420     0.9410 hc         1 0Z1       0.081700
     37 HG2         -4.8280     2.1740     0.6920 hc         1 0Z1       0.054700
     38 HG3         -5.0170     0.4740     1.1220 hc         1 0Z1       0.054700
     39 HD2         -3.9510     0.9130     3.3520 hc         1 0Z1       0.071200
     40 HD3         -3.7720     2.6180     2.9290 hc         1 0Z1       0.071200
     41 HE2         -6.2570     2.8360     2.7270 hx         1 0Z1       0.105700
     42 HE3         -6.4380     1.1200     3.1520 hx         1 0Z1       0.105700
     43 HZ1         -5.3910     1.6230     5.3530 hn         1 0Z1       0.513000
     44 HZ2         -5.2240     3.2120     4.9590 hn         1 0Z1       0.513000
     45 HZ3         -6.7200     2.5630     5.1450 hn         1 0Z1       0.513000
     46 HA1          1.0330     0.8650    -2.4960 h1         1 0Z1       0.089700
     47 HB21         2.2920     3.2630    -1.8070 hc         1 0Z1       0.068200
     48 HB31         1.0890     3.1960    -3.0910 hc         1 0Z1       0.068200
     49 HG21         0.5230     3.8510    -0.1150 hc         1 0Z1       0.067700
     50 HG31         0.1850     4.8930    -1.5020 hc         1 0Z1       0.067700
     51 HD21        -1.4870     3.2830    -2.4070 h1         1 0Z1       0.041200
     52 HD31        -1.8230     3.3280    -0.6590 h1         1 0Z1       0.041200
     53 HN11         3.0760     0.7760    -1.9270 hn         1 0Z1       0.153000
     54 H2           5.1670    -0.0660    -2.1730 ha         1 0Z1       0.124000
     55 H3           7.2370    -0.9700    -1.1790 ha         1 0Z1       0.115500
     56 H5           5.4700    -0.6720     2.7560 ha         1 0Z1       0.115500
     57 H6           3.4150     0.2270     1.7780 ha         1 0Z1       0.124000
     58 H1           8.5110    -1.6510     0.6640 hc         1 0Z1       0.051700
     59 H2'1         7.8370    -0.2110     3.2830 hc         1 0Z1       0.035867
     60 H2'2         9.4300    -0.8110     2.7770 hc         1 0Z1       0.035867
     61 H2'3         8.6580     0.5140     1.8840 hc         1 0Z1       0.035867
     62 H3'1         7.0880    -3.5180     1.4900 hc         1 0Z1       0.035867
     63 H3'2         8.4890    -3.2280     2.5410 hc         1 0Z1       0.035867
     64 H3'3         6.8770    -2.6780     3.0420 hc         1 0Z1       0.035867
@<TRIPOS>BOND
     1     1     2 1   
     2     1     3 2   
     3     1     7 1   
     4     2     4 1   
     5     2     5 1   
     6     2     6 1   
     7     7     8 1   
     8     7    33 1   
     9     8     9 1   
    10     8    11 1   
    11     8    34 1   
    12     9    10 2   
    13     9    16 1   
    14    11    12 1   
    15    11    35 1   
    16    11    36 1   
    17    12    13 1   
    18    12    37 1   
    19    12    38 1   
    20    13    14 1   
    21    13    39 1   
    22    13    40 1   
    23    14    15 1   
    24    14    41 1   
    25    14    42 1   
    26    15    43 1   
    27    15    44 1   
    28    15    45 1   
    29    16    17 1   
    30    16    22 1   
    31    17    18 1   
    32    17    20 1   
    33    17    46 1   
    34    18    19 2   
    35    18    24 1   
    36    20    21 1   
    37    20    47 1   
    38    20    48 1   
    39    21    22 1   
    40    21    49 1   
    41    21    50 1   
    42    22    51 1   
    43    22    52 1   
    44    23    24 1   
    45    23    25 ar  
    46    23    29 ar  
    47    24    53 1   
    48    25    26 ar  
    49    25    54 1   
    50    26    27 ar  
    51    26    55 1   
    52    27    28 ar  
    53    27    30 1   
    54    28    29 ar  
    55    28    56 1   
    56    29    57 1   
    57    30    31 1   
    58    30    32 1   
    59    30    58 1   
    60    31    59 1   
    61    31    60 1   
    62    31    61 1   
    63    32    62 1   
    64    32    63 1   
    65    32    64 1   
@<TRIPOS>SUBSTRUCTURE
     1 0Z1         1 TEMP              0 ****  ****    0 ROOT
