@<TRIPOS>MOLECULE
0Z2
   51    51     1     0     0
SMALL
abcg2


@<TRIPOS>ATOM
      1 C1          -4.7640     0.9850     1.0700 c          1 0Z2       0.547100
      2 C2          -6.1720     1.5960     1.0460 c3         1 0Z2       0.227000
      3 O           -3.9850     1.3730     1.9170 o          1 0Z2      -0.548100
      4 F1          -6.7840     1.3650     2.2050 f          1 0Z2      -0.101667
      5 F2          -6.0860     2.9140     0.8820 f          1 0Z2      -0.101667
      6 F3          -6.9450     1.1110     0.0720 f          1 0Z2      -0.101667
      7 N           -4.5080     0.0540     0.1560 ns         1 0Z2      -0.467900
      8 CA          -3.1960    -0.5460     0.0690 c3         1 0Z2       0.037700
      9 C           -2.1690     0.5220    -0.3130 c          1 0Z2       0.590100
     10 O1          -2.4230     1.3780    -1.1430 o          1 0Z2      -0.595100
     11 CB          -3.1910    -1.6540    -0.9830 c3         1 0Z2      -0.087400
     12 CG          -4.1530    -2.8140    -0.7100 c3         1 0Z2      -0.060700
     13 CD1         -4.0900    -3.8070    -1.8670 c3         1 0Z2      -0.092100
     14 CD2         -3.8570    -3.5120     0.6130 c3         1 0Z2      -0.092100
     15 N1          -0.9810     0.3920     0.2920 ns         1 0Z2      -0.489900
     16 CA1          0.1120     1.3040     0.0660 c3         1 0Z2       0.035700
     17 C3           1.4060     0.6080     0.4690 c          1 0Z2       0.600100
     18 O2           1.4270    -0.2510     1.3290 o          1 0Z2      -0.576100
     19 CB1         -0.0400     2.5940     0.8770 c3         1 0Z2      -0.114100
     20 N2           2.4980     1.0830    -0.1760 ns         1 0Z2      -0.141000
     21 C11          3.8430     0.7720     0.0240 ca         1 0Z2       0.009000
     22 C21          4.3270     0.0070     1.0840 ca         1 0Z2      -0.158000
     23 C31          5.6900    -0.2210     1.2040 ca         1 0Z2      -0.030500
     24 C4           6.5860     0.3020     0.2840 ca         1 0Z2      -0.226300
     25 C5           6.1030     1.0610    -0.7780 ca         1 0Z2      -0.030500
     26 C6           4.7490     1.2920    -0.9050 ca         1 0Z2      -0.158000
     27 C7           8.0520     0.0370     0.3870 c3         1 0Z2       0.361300
     28 F11          8.4620    -0.8650    -0.5190 f          1 0Z2      -0.114667
     29 F21          8.7760     1.1440     0.1690 f          1 0Z2      -0.114667
     30 F31          8.4060    -0.4330     1.5870 f          1 0Z2      -0.114667
     31 H           -5.1820    -0.1530    -0.5650 hn         1 0Z2       0.346500
     32 HA          -2.9380    -0.9670     1.0450 h1         1 0Z2       0.080700
     33 HB2         -3.4190    -1.2140    -1.9600 hc         1 0Z2       0.062200
     34 HB3         -2.1720    -2.0460    -1.0490 hc         1 0Z2       0.062200
     35 HG          -5.1760    -2.4230    -0.6680 hc         1 0Z2       0.044700
     36 HD11        -3.0950    -4.2490    -1.9480 hc         1 0Z2       0.037867
     37 HD12        -4.8030    -4.6190    -1.7210 hc         1 0Z2       0.037867
     38 HD13        -4.3210    -3.3270    -2.8190 hc         1 0Z2       0.037867
     39 HD21        -3.9680    -2.8470     1.4710 hc         1 0Z2       0.037867
     40 HD22        -4.5370    -4.3500     0.7670 hc         1 0Z2       0.037867
     41 HD23        -2.8370    -3.9050     0.6250 hc         1 0Z2       0.037867
     42 H1          -0.8800    -0.2710     1.0470 hn         1 0Z2       0.341500
     43 HA1          0.1410     1.5510    -0.9980 h1         1 0Z2       0.080700
     44 HB1         -0.0730     2.3760     1.9450 hc         1 0Z2       0.057367
     45 HB21         0.7860     3.2800     0.6900 hc         1 0Z2       0.057367
     46 HB31        -0.9640     3.0970     0.5990 hc         1 0Z2       0.057367
     47 HN1          2.3240     1.7380    -0.9240 hn         1 0Z2       0.159000
     48 H2           3.6650    -0.4120     1.8230 ha         1 0Z2       0.135500
     49 H3           6.0330    -0.8120     2.0420 ha         1 0Z2       0.132000
     50 H5           6.7720     1.4830    -1.5170 ha         1 0Z2       0.132000
     51 H6           4.3880     1.8840    -1.7370 ha         1 0Z2       0.135500
@<TRIPOS>BOND
     1     1     2 1   
     2     1     3 2   
     3     1     7 1   
     4     2     4 1   
     5     2     5 1   
     6     2     6 1   
     7     7     8 1   
     8     7    31 1   
     9     8     9 1   
    10     8    11 1   
    11     8    32 1   
    12     9    10 2   
    13     9    15 1   
    14    11    12 1   
    15    11    33 1   
    16    11    34 1   
    17    12    13 1   
    18    12    14 1   
    19    12    35 1   
    20    13    36 1   
    21    13    37 1   
    22    13    38 1   
    23    14    39 1   
    24    14    40 1   
    25    14    41 1   
    26    15    16 1   
    27    15    42 1   
    28    16    17 1   
    29    16    19 1   
    30    16    43 1   
    31    17    18 2   
    32    17    20 1   
    33    19    44 1   
    34    19    45 1   
    35    19    46 1   
    36    20    21 1   
    37    20    47 1   
    38    21    22 ar  
    39    21    26 ar  
    40    22    23 ar  
    41    22    48 1   
    42    23    24 ar  
    43    23    49 1   
    44    24    25 ar  
    45    24    27 1   
    46    25    26 ar  
    47    25    50 1   
    48    26    51 1   
    49    27    28 1   
    50    27    29 1   
    51    27    30 1   
@<TRIPOS>SUBSTRUCTURE
     1 0Z2         1 TEMP              0 ****  ****    0 ROOT
