@<TRIPOS>MOLECULE
0Z2
   51    51     1     0     0
SMALL
No Charge or Current Charge


@<TRIPOS>ATOM
      1 C1          -5.7900     0.3320     0.6690 c          1 0Z2       0.547100
      2 C2          -7.0710     1.0160     0.1110 c3         1 0Z2       0.227000
      3 O           -5.7530    -0.2500     1.7470 o          1 0Z2      -0.548100
      4 F1          -8.1280     0.8830     0.9500 f          1 0Z2      -0.101667
      5 F2          -6.8770     2.3420    -0.0830 f          1 0Z2      -0.101667
      6 F3          -7.4350     0.4820    -1.0800 f          1 0Z2      -0.101667
      7 N           -4.6720     0.4300    -0.1430 ns         1 0Z2      -0.467900
      8 CA          -3.3390    -0.1500     0.1500 c3         1 0Z2       0.037700
      9 C           -2.2260     0.8770    -0.2090 c          1 0Z2       0.590100
     10 O1          -2.4300     1.8730    -0.8930 o          1 0Z2      -0.595100
     11 CB          -3.1360    -1.4880    -0.6190 c3         1 0Z2      -0.087400
     12 CG          -4.0570    -2.6670    -0.1960 c3         1 0Z2      -0.060700
     13 CD1         -3.9270    -3.8490    -1.1830 c3         1 0Z2      -0.092100
     14 CD2         -3.7890    -3.1400     1.2540 c3         1 0Z2      -0.092100
     15 N1          -0.9770     0.5890     0.3010 ns         1 0Z2      -0.489900
     16 CA1          0.2370     1.4160     0.1050 c3         1 0Z2       0.035700
     17 C3           1.5220     0.5650     0.3360 c          1 0Z2       0.600100
     18 O2           1.4740    -0.5690     0.8060 o          1 0Z2      -0.576100
     19 CB1          0.1940     2.6660     1.0170 c3         1 0Z2      -0.114100
     20 N2           2.6980     1.2040    -0.0400 ns         1 0Z2      -0.141000
     21 C11          4.0620     0.8030    -0.0050 ca         1 0Z2       0.009000
     22 C21          4.4980    -0.4620     0.4420 ca         1 0Z2      -0.158000
     23 C31          5.8660    -0.7870     0.4470 ca         1 0Z2      -0.030500
     24 C4           6.8270     0.1480     0.0100 ca         1 0Z2      -0.226300
     25 C5           6.3910     1.4080    -0.4470 ca         1 0Z2      -0.030500
     26 C6           5.0230     1.7290    -0.4500 ca         1 0Z2      -0.158000
     27 C7           8.3170    -0.2110     0.0060 c3         1 0Z2       0.361300
     28 F11          8.6800    -0.7850    -1.1630 f          1 0Z2      -0.114667
     29 F21          9.1090     0.8730     0.1760 f          1 0Z2      -0.114667
     30 F31          8.6390    -1.0820     0.9900 f          1 0Z2      -0.114667
     31 H           -4.7760     0.9680    -0.9980 hn         1 0Z2       0.346500
     32 HA          -3.2510    -0.3290     1.2290 h1         1 0Z2       0.080700
     33 HB2         -3.2770    -1.2900    -1.6890 hc         1 0Z2       0.062200
     34 HB3         -2.0930    -1.8130    -0.5090 hc         1 0Z2       0.062200
     35 HG          -5.0980    -2.3250    -0.2480 hc         1 0Z2       0.044700
     36 HD11        -2.9050    -4.2460    -1.1860 hc         1 0Z2       0.037867
     37 HD12        -4.6100    -4.6620    -0.9070 hc         1 0Z2       0.037867
     38 HD13        -4.1760    -3.5330    -2.2030 hc         1 0Z2       0.037867
     39 HD21        -3.9690    -2.3390     1.9780 hc         1 0Z2       0.037867
     40 HD22        -4.4520    -3.9750     1.5150 hc         1 0Z2       0.037867
     41 HD23        -2.7530    -3.4800     1.3680 hc         1 0Z2       0.037867
     42 H1          -0.8870    -0.2660     0.8420 hn         1 0Z2       0.341500
     43 HA1          0.2640     1.7480    -0.9420 h1         1 0Z2       0.080700
     44 HB1          0.1850     2.3750     2.0750 hc         1 0Z2       0.057367
     45 HB21         1.0640     3.3110     0.8460 hc         1 0Z2       0.057367
     46 HB31        -0.7050     3.2620     0.8200 hc         1 0Z2       0.057367
     47 HN1          2.5590     2.1360    -0.4100 hn         1 0Z2       0.159000
     48 H2           3.7960    -1.2130     0.7880 ha         1 0Z2       0.135500
     49 H3           6.1730    -1.7730     0.7910 ha         1 0Z2       0.132000
     50 H5           7.1090     2.1450    -0.8040 ha         1 0Z2       0.132000
     51 H6           4.7110     2.7090    -0.8050 ha         1 0Z2       0.135500
@<TRIPOS>BOND
     1     1     2 1   
     2     1     3 2   
     3     1     7 1   
     4     2     4 1   
     5     2     5 1   
     6     2     6 1   
     7     7     8 1   
     8     7    31 1   
     9     8     9 1   
    10     8    11 1   
    11     8    32 1   
    12     9    10 2   
    13     9    15 1   
    14    11    12 1   
    15    11    33 1   
    16    11    34 1   
    17    12    13 1   
    18    12    14 1   
    19    12    35 1   
    20    13    36 1   
    21    13    37 1   
    22    13    38 1   
    23    14    39 1   
    24    14    40 1   
    25    14    41 1   
    26    15    16 1   
    27    15    42 1   
    28    16    17 1   
    29    16    19 1   
    30    16    43 1   
    31    17    18 2   
    32    17    20 1   
    33    19    44 1   
    34    19    45 1   
    35    19    46 1   
    36    20    21 1   
    37    20    47 1   
    38    21    22 ar  
    39    21    26 ar  
    40    22    23 ar  
    41    22    48 1   
    42    23    24 ar  
    43    23    49 1   
    44    24    25 ar  
    45    24    27 1   
    46    25    26 ar  
    47    25    50 1   
    48    26    51 1   
    49    27    28 1   
    50    27    29 1   
    51    27    30 1   
@<TRIPOS>SUBSTRUCTURE
     1 0Z2         1 TEMP              0 ****  ****    0 ROOT
