@<TRIPOS>MOLECULE
0Z3
   70    71     1     0     0
SMALL
bcc


@<TRIPOS>ATOM
      1 C1          -3.4440     0.3640     2.2250 c          1 0Z3       0.621100
      2 C2          -4.6470    -0.0470     3.0930 c3         1 0Z3       0.587900
      3 O           -2.5100     0.9250     2.7580 o          1 0Z3      -0.528100
      4 F1          -4.2460    -0.3630     4.3170 f          1 0Z3      -0.220967
      5 F2          -5.5040     0.9740     3.1880 f          1 0Z3      -0.220967
      6 F3          -5.3150    -1.0910     2.5970 f          1 0Z3      -0.220967
      7 N           -3.5790     0.1100     0.9250 ns         1 0Z3      -0.549900
      8 CA          -2.5510     0.4210    -0.0400 c3         1 0Z3       0.037700
      9 C           -1.3040    -0.4310     0.2430 c          1 0Z3       0.669100
     10 O1          -1.3200    -1.3360     1.0530 o          1 0Z3      -0.557100
     11 CB          -2.2870     1.9260    -0.1800 c3         1 0Z3      -0.087400
     12 CG          -3.5600     2.7220    -0.4360 c3         1 0Z3      -0.068400
     13 CD          -3.2600     4.1960    -0.6780 c3         1 0Z3      -0.108400
     14 CE          -4.5360     4.9680    -0.9410 c3         1 0Z3       0.126800
     15 NZ          -4.2530     6.4100    -1.1710 nz         1 0Z3      -0.836600
     16 N1          -0.2300    -0.1200    -0.5080 ns         1 0Z3      -0.556900
     17 CA1          0.9610    -0.9240    -0.5440 c3         1 0Z3       0.024700
     18 C3           2.1850    -0.0130    -0.5420 c          1 0Z3       0.669100
     19 O2           2.1620     1.0770    -1.0830 o          1 0Z3      -0.600100
     20 CB1          1.0020    -1.8230    -1.7990 c3         1 0Z3      -0.048100
     21 CG1         -0.2260    -2.6810    -1.8930 ca         1 0Z3      -0.087300
     22 CD1         -1.3430    -2.2430    -2.5990 ca         1 0Z3      -0.121500
     23 CD2         -0.2920    -3.9040    -1.2300 ca         1 0Z3      -0.121500
     24 CE1         -2.5050    -3.0020    -2.6340 ca         1 0Z3      -0.124500
     25 CE2         -1.4490    -4.6690    -1.2680 ca         1 0Z3      -0.124500
     26 CZ          -2.5620    -4.2180    -1.9670 ca         1 0Z3      -0.117000
     27 C11          4.5720    -0.0740     0.1670 ca         1 0Z3       0.054600
     28 N11          3.2630    -0.5630     0.0570 ns         1 0Z3      -0.457100
     29 C21          5.0030     1.1570    -0.3220 ca         1 0Z3      -0.160500
     30 C31          6.3290     1.5360    -0.1460 ca         1 0Z3      -0.098500
     31 C4           7.2550     0.7310     0.5060 ca         1 0Z3      -0.085300
     32 C5           6.8040    -0.4980     0.9870 ca         1 0Z3      -0.098500
     33 C6           5.4910    -0.8950     0.8240 ca         1 0Z3      -0.160500
     34 C7           8.6960     1.1570     0.6600 c3         1 0Z3      -0.014400
     35 C8           9.1710     1.0570     2.1080 c3         1 0Z3      -0.086100
     36 C9           9.6020     0.3460    -0.2700 c3         1 0Z3      -0.086100
     37 H           -4.3820    -0.3990     0.5930 hn         1 0Z3       0.344500
     38 HA          -2.9420     0.0690    -1.0000 h1         1 0Z3       0.072700
     39 HB2         -1.7700     2.3110     0.7000 hc         1 0Z3       0.070700
     40 HB3         -1.6170     2.0830    -1.0280 hc         1 0Z3       0.070700
     41 HG2         -4.0810     2.3070    -1.3040 hc         1 0Z3       0.056700
     42 HG3         -4.2430     2.6280     0.4120 hc         1 0Z3       0.056700
     43 HD2         -2.7480     4.6160     0.1930 hc         1 0Z3       0.069700
     44 HD3         -2.5830     4.3010    -1.5310 hc         1 0Z3       0.069700
     45 HE2         -5.0490     4.6060    -1.8300 hx         1 0Z3       0.107200
     46 HE3         -5.2210     4.9130    -0.0980 hx         1 0Z3       0.107200
     47 HZ1         -3.8190     6.8460    -0.3580 hn         1 0Z3       0.458133
     48 HZ2         -3.6250     6.5530    -1.9610 hn         1 0Z3       0.458133
     49 HZ3         -5.1040     6.9330    -1.3690 hn         1 0Z3       0.458133
     50 H1          -0.2970     0.6200    -1.1890 hn         1 0Z3       0.322500
     51 HA1          0.9590    -1.5570     0.3450 h1         1 0Z3       0.099700
     52 HB21         1.0880    -1.1880    -2.6850 hc         1 0Z3       0.064700
     53 HB31         1.9010    -2.4420    -1.7590 hc         1 0Z3       0.064700
     54 HD1         -1.3030    -1.3000    -3.1340 ha         1 0Z3       0.124500
     55 HD21         0.5690    -4.2620    -0.6790 ha         1 0Z3       0.124500
     56 HE1         -3.3640    -2.6450    -3.1880 ha         1 0Z3       0.133000
     57 HE21        -1.4820    -5.6200    -0.7510 ha         1 0Z3       0.133000
     58 HZ          -3.4650    -4.8140    -1.9940 ha         1 0Z3       0.137000
     59 HN11         3.1140    -1.4600     0.4930 hn         1 0Z3       0.321500
     60 H2           4.3280     1.8230    -0.8330 ha         1 0Z3       0.143000
     61 H3           6.6420     2.4990    -0.5340 ha         1 0Z3       0.134500
     62 H5           7.4830    -1.1640     1.5070 ha         1 0Z3       0.134500
     63 H6           5.1730    -1.8550     1.2130 ha         1 0Z3       0.143000
     64 H4           8.7630     2.2070     0.3580 hc         1 0Z3       0.050700
     65 H2'1         8.5460     1.6520     2.7750 hc         1 0Z3       0.037033
     66 H2'2         9.1540     0.0260     2.4660 hc         1 0Z3       0.037033
     67 H2'3        10.1970     1.4170     2.2010 hc         1 0Z3       0.037033
     68 H3'1         9.3050     0.4620    -1.3130 hc         1 0Z3       0.037033
     69 H3'2        10.6400     0.6710    -0.1800 hc         1 0Z3       0.037033
     70 H3'3         9.5650    -0.7170    -0.0270 hc         1 0Z3       0.037033
@<TRIPOS>BOND
     1     1     2 1   
     2     1     3 2   
     3     1     7 1   
     4     2     4 1   
     5     2     5 1   
     6     2     6 1   
     7     7     8 1   
     8     7    37 1   
     9     8     9 1   
    10     8    11 1   
    11     8    38 1   
    12     9    10 2   
    13     9    16 1   
    14    11    12 1   
    15    11    39 1   
    16    11    40 1   
    17    12    13 1   
    18    12    41 1   
    19    12    42 1   
    20    13    14 1   
    21    13    43 1   
    22    13    44 1   
    23    14    15 1   
    24    14    45 1   
    25    14    46 1   
    26    15    47 1   
    27    15    48 1   
    28    15    49 1   
    29    16    17 1   
    30    16    50 1   
    31    17    18 1   
    32    17    20 1   
    33    17    51 1   
    34    18    19 2   
    35    18    28 1   
    36    20    21 1   
    37    20    52 1   
    38    20    53 1   
    39    21    22 ar  
    40    21    23 ar  
    41    22    24 ar  
    42    22    54 1   
    43    23    25 ar  
    44    23    55 1   
    45    24    26 ar  
    46    24    56 1   
    47    25    26 ar  
    48    25    57 1   
    49    26    58 1   
    50    27    28 1   
    51    27    29 ar  
    52    27    33 ar  
    53    28    59 1   
    54    29    30 ar  
    55    29    60 1   
    56    30    31 ar  
    57    30    61 1   
    58    31    32 ar  
    59    31    34 1   
    60    32    33 ar  
    61    32    62 1   
    62    33    63 1   
    63    34    35 1   
    64    34    36 1   
    65    34    64 1   
    66    35    65 1   
    67    35    66 1   
    68    35    67 1   
    69    36    68 1   
    70    36    69 1   
    71    36    70 1   
@<TRIPOS>SUBSTRUCTURE
     1 0Z3         1 TEMP              0 ****  ****    0 ROOT
