@<TRIPOS>MOLECULE
0Z3
   70    71     1     0     0
SMALL
No Charge or Current Charge


@<TRIPOS>ATOM
      1 C1          -4.0080     0.3390     2.0670 c          1 0Z3       0.554100
      2 C2          -5.3460    -0.1440     2.6970 c3         1 0Z3       0.224000
      3 O           -3.1280     0.8970     2.7120 o          1 0Z3      -0.528100
      4 F1          -5.4000     0.0990     4.0290 f          1 0Z3      -0.099667
      5 F2          -6.4070     0.4780     2.1310 f          1 0Z3      -0.099667
      6 F3          -5.5190    -1.4760     2.5250 f          1 0Z3      -0.099667
      7 N           -3.8790     0.0940     0.7060 ns         1 0Z3      -0.482900
      8 CA          -2.7050     0.4500    -0.1340 c3         1 0Z3       0.037700
      9 C           -1.4690    -0.4490     0.1980 c          1 0Z3       0.602100
     10 O1          -1.5030    -1.3650     1.0110 o          1 0Z3      -0.557100
     11 CB          -2.3910     1.9780    -0.1420 c3         1 0Z3      -0.087400
     12 CG          -3.6160     2.8750    -0.4450 c3         1 0Z3      -0.068400
     13 CD          -3.2600     4.3760    -0.5120 c3         1 0Z3      -0.108400
     14 CE          -4.4820     5.2590    -0.8080 c3         1 0Z3       0.098600
     15 NZ          -4.0900     6.7130    -0.8630 nz         1 0Z3      -0.974000
     16 N1          -0.3110    -0.1420    -0.4930 ns         1 0Z3      -0.489900
     17 CA1          0.9560    -0.9120    -0.4210 c3         1 0Z3       0.024700
     18 C3           2.1820     0.0470    -0.4150 c          1 0Z3       0.602100
     19 O2           2.0800     1.2380    -0.6990 o          1 0Z3      -0.600100
     20 CB1          1.0430    -1.9370    -1.5850 c3         1 0Z3      -0.048100
     21 CG1         -0.1690    -2.8610    -1.6680 ca         1 0Z3      -0.087300
     22 CD1         -1.2080    -2.5930    -2.5820 ca         1 0Z3      -0.103500
     23 CD2         -0.2640    -3.9820    -0.8210 ca         1 0Z3      -0.103500
     24 CE1         -2.3310    -3.4360    -2.6450 ca         1 0Z3      -0.106500
     25 CE2         -1.3870    -4.8260    -0.8860 ca         1 0Z3      -0.106500
     26 CZ          -2.4210    -4.5530    -1.7970 ca         1 0Z3      -0.099000
     27 C11          4.7090    -0.0890     0.0700 ca         1 0Z3      -0.038000
     28 N11          3.3760    -0.5710    -0.0560 ns         1 0Z3      -0.131000
     29 C21          5.0910     1.2420    -0.2050 ca         1 0Z3      -0.142500
     30 C31          6.4310     1.6440    -0.0580 ca         1 0Z3      -0.080500
     31 C4           7.4140     0.7280     0.3630 ca         1 0Z3      -0.085300
     32 C5           7.0330    -0.6010     0.6350 ca         1 0Z3      -0.080500
     33 C6           5.6940    -1.0020     0.4890 ca         1 0Z3      -0.142500
     34 C7           8.8690     1.1770     0.5180 c3         1 0Z3      -0.014400
     35 C8           9.3470     1.0510     1.9820 c3         1 0Z3      -0.086100
     36 C9           9.8020     0.4220    -0.4540 c3         1 0Z3      -0.086100
     37 H           -4.6540    -0.3890     0.2630 hn         1 0Z3       0.344500
     38 HA          -2.9710     0.1840    -1.1650 h1         1 0Z3       0.072700
     39 HB2         -1.9590     2.2700     0.8230 hc         1 0Z3       0.070700
     40 HB3         -1.6220     2.1840    -0.8960 hc         1 0Z3       0.070700
     41 HG2         -4.0620     2.5670    -1.4000 hc         1 0Z3       0.056700
     42 HG3         -4.3820     2.7290     0.3270 hc         1 0Z3       0.056700
     43 HD2         -2.8140     4.6840     0.4420 hc         1 0Z3       0.069700
     44 HD3         -2.5020     4.5350    -1.2900 hc         1 0Z3       0.069700
     45 HE2         -4.9220     4.9650    -1.7680 hx         1 0Z3       0.107200
     46 HE3         -5.2360     5.1150    -0.0260 hx         1 0Z3       0.107200
     47 HZ1         -3.6830     7.0600     0.0190 hn         1 0Z3       0.513333
     48 HZ2         -3.3920     6.9210    -1.5940 hn         1 0Z3       0.513333
     49 HZ3         -4.8880     7.3390    -1.0600 hn         1 0Z3       0.513333
     50 H1          -0.3490     0.6510    -1.1230 hn         1 0Z3       0.322500
     51 HA1          0.9850    -1.4610     0.5300 h1         1 0Z3       0.099700
     52 HB21         1.1600    -1.3920    -2.5300 hc         1 0Z3       0.064700
     53 HB31         1.9530    -2.5390    -1.4730 hc         1 0Z3       0.064700
     54 HD1         -1.1490    -1.7290    -3.2400 ha         1 0Z3       0.106500
     55 HD21         0.5290    -4.1970    -0.1090 ha         1 0Z3       0.106500
     56 HE1         -3.1310    -3.2240    -3.3510 ha         1 0Z3       0.115000
     57 HE21        -1.4560    -5.6890    -0.2280 ha         1 0Z3       0.115000
     58 HZ          -3.2900    -5.2050    -1.8460 ha         1 0Z3       0.119000
     59 HN11         3.2820    -1.5560     0.1550 hn         1 0Z3       0.155000
     60 H2           4.3700     1.9830    -0.5340 ha         1 0Z3       0.125000
     61 H3           6.7030     2.6750    -0.2750 ha         1 0Z3       0.116500
     62 H5           7.7730    -1.3270     0.9620 ha         1 0Z3       0.116500
     63 H6           5.4240    -2.0340     0.7050 ha         1 0Z3       0.125000
     64 H4           8.9400     2.2410     0.2570 hc         1 0Z3       0.050700
     65 H2'1         8.6850     1.6120     2.6510 hc         1 0Z3       0.037033
     66 H2'2         9.3570     0.0040     2.3070 hc         1 0Z3       0.037033
     67 H2'3        10.3620     1.4520     2.0930 hc         1 0Z3       0.037033
     68 H3'1         9.4570     0.5440    -1.4880 hc         1 0Z3       0.037033
     69 H3'2        10.8250     0.8110    -0.3890 hc         1 0Z3       0.037033
     70 H3'3         9.8300    -0.6500    -0.2260 hc         1 0Z3       0.037033
@<TRIPOS>BOND
     1     1     2 1   
     2     1     3 2   
     3     1     7 1   
     4     2     4 1   
     5     2     5 1   
     6     2     6 1   
     7     7     8 1   
     8     7    37 1   
     9     8     9 1   
    10     8    11 1   
    11     8    38 1   
    12     9    10 2   
    13     9    16 1   
    14    11    12 1   
    15    11    39 1   
    16    11    40 1   
    17    12    13 1   
    18    12    41 1   
    19    12    42 1   
    20    13    14 1   
    21    13    43 1   
    22    13    44 1   
    23    14    15 1   
    24    14    45 1   
    25    14    46 1   
    26    15    47 1   
    27    15    48 1   
    28    15    49 1   
    29    16    17 1   
    30    16    50 1   
    31    17    18 1   
    32    17    20 1   
    33    17    51 1   
    34    18    19 2   
    35    18    28 1   
    36    20    21 1   
    37    20    52 1   
    38    20    53 1   
    39    21    22 ar  
    40    21    23 ar  
    41    22    24 ar  
    42    22    54 1   
    43    23    25 ar  
    44    23    55 1   
    45    24    26 ar  
    46    24    56 1   
    47    25    26 ar  
    48    25    57 1   
    49    26    58 1   
    50    27    28 1   
    51    27    29 ar  
    52    27    33 ar  
    53    28    59 1   
    54    29    30 ar  
    55    29    60 1   
    56    30    31 ar  
    57    30    61 1   
    58    31    32 ar  
    59    31    34 1   
    60    32    33 ar  
    61    32    62 1   
    62    33    63 1   
    63    34    35 1   
    64    34    36 1   
    65    34    64 1   
    66    35    65 1   
    67    35    66 1   
    68    35    67 1   
    69    36    68 1   
    70    36    69 1   
    71    36    70 1   
@<TRIPOS>SUBSTRUCTURE
     1 0Z3         1 TEMP              0 ****  ****    0 ROOT
