@<TRIPOS>MOLECULE
0Z4
   69    69     1     0     0
SMALL
No Charge or Current Charge


@<TRIPOS>ATOM
      1 C1          -4.6590    -0.3270     1.3940 c          1 0Z4       0.557100
      2 C2          -6.0540    -0.8660     1.8230 c3         1 0Z4       0.223000
      3 O           -3.8850     0.2190     2.1720 o          1 0Z4      -0.532100
      4 F1          -6.2870    -0.6840     3.1450 f          1 0Z4      -0.099000
      5 F2          -7.0490    -0.2420     1.1500 f          1 0Z4      -0.099000
      6 F3          -6.1680    -2.1930     1.5750 f          1 0Z4      -0.099000
      7 N           -4.3480    -0.5060     0.0530 ns         1 0Z4      -0.482900
      8 CA          -3.0880    -0.0830    -0.6120 c3         1 0Z4       0.038700
      9 C           -1.8790    -0.9670    -0.1580 c          1 0Z4       0.585100
     10 O1          -1.9930    -1.9340     0.5860 o          1 0Z4      -0.561100
     11 CB          -2.8210     1.4500    -0.5130 c3         1 0Z4      -0.083400
     12 CG          -4.0240     2.3320    -0.9310 c3         1 0Z4      -0.067400
     13 CD          -3.7060     3.8420    -0.8860 c3         1 0Z4      -0.107400
     14 CE          -4.9070     4.7090    -1.2990 c3         1 0Z4       0.098600
     15 NZ          -4.5550     6.1720    -1.2400 nz         1 0Z4      -0.973000
     16 N1          -0.6460    -0.5900    -0.6550 ns         1 0Z4      -0.498900
     17 CA1          0.6350    -1.2820    -0.3770 c3         1 0Z4       0.031700
     18 C3           1.8170    -0.2840    -0.5740 c          1 0Z4       0.598100
     19 O2           1.7190     0.6960    -1.3090 o          1 0Z4      -0.601100
     20 CB1          0.7470    -2.5410    -1.2880 c3         1 0Z4      -0.091400
     21 CG1          1.9750    -3.4680    -1.0570 c3         1 0Z4      -0.059700
     22 CD1          2.0280    -4.0470     0.3770 c3         1 0Z4      -0.089100
     23 CD2          2.0030    -4.6060    -2.1020 c3         1 0Z4      -0.089100
     24 C11          4.2260     0.0310     0.2820 ca         1 0Z4      -0.043000
     25 N11          2.9510    -0.5900     0.1700 ns         1 0Z4      -0.134000
     26 C21          4.5990     1.1910    -0.4290 ca         1 0Z4      -0.137500
     27 C31          5.8810     1.7450    -0.2670 ca         1 0Z4      -0.083500
     28 C4           6.8150     1.1530     0.6060 ca         1 0Z4      -0.083300
     29 C5           6.4430    -0.0060     1.3140 ca         1 0Z4      -0.083500
     30 C6           5.1610    -0.5600     1.1520 ca         1 0Z4      -0.137500
     31 C7           8.2070     1.7650     0.7730 c3         1 0Z4      -0.015400
     32 C8           8.4450     2.2430     2.2230 c3         1 0Z4      -0.085100
     33 C9           9.3130     0.7940     0.3040 c3         1 0Z4      -0.085100
     34 H           -5.0460    -0.9850    -0.5080 hn         1 0Z4       0.345500
     35 HA          -3.2110    -0.3070    -1.6790 h1         1 0Z4       0.070700
     36 HB2         -2.5240     1.7070     0.5120 hc         1 0Z4       0.071700
     37 HB3         -1.9690     1.7110    -1.1520 hc         1 0Z4       0.071700
     38 HG2         -4.3350     2.0580    -1.9480 hc         1 0Z4       0.057200
     39 HG3         -4.8770     2.1310    -0.2710 hc         1 0Z4       0.057200
     40 HD2         -3.3950     4.1160     0.1300 hc         1 0Z4       0.069700
     41 HD3         -2.8610     4.0550    -1.5530 hc         1 0Z4       0.069700
     42 HE2         -5.2120     4.4490    -2.3190 hx         1 0Z4       0.107700
     43 HE3         -5.7490     4.5100    -0.6270 hx         1 0Z4       0.107700
     44 HZ1         -5.3390     6.7880    -1.5110 hn         1 0Z4       0.513667
     45 HZ2         -4.2740     6.4880    -0.2980 hn         1 0Z4       0.513667
     46 HZ3         -3.7760     6.4310    -1.8650 hn         1 0Z4       0.513667
     47 H1          -0.6220     0.2210    -1.2650 hn         1 0Z4       0.327500
     48 HA1          0.6340    -1.5880     0.6780 h1         1 0Z4       0.090700
     49 HB21        -0.1620    -3.1450    -1.1660 hc         1 0Z4       0.057200
     50 HB31         0.7490    -2.2070    -2.3330 hc         1 0Z4       0.057200
     51 HG           2.8890    -2.8820    -1.2170 hc         1 0Z4       0.053700
     52 HD11         2.8880    -4.7180     0.4910 hc         1 0Z4       0.037200
     53 HD12         2.1270    -3.2570     1.1290 hc         1 0Z4       0.037200
     54 HD13         1.1190    -4.6200     0.5990 hc         1 0Z4       0.037200
     55 HD21         2.0210    -4.1990    -3.1210 hc         1 0Z4       0.037200
     56 HD22         2.8960    -5.2300    -1.9740 hc         1 0Z4       0.037200
     57 HD23         1.1190    -5.2490    -2.0050 hc         1 0Z4       0.037200
     58 HN11         2.8580    -1.4240     0.7350 hn         1 0Z4       0.158000
     59 H2           3.9150     1.6820    -1.1140 ha         1 0Z4       0.124500
     60 H3           6.1470     2.6400    -0.8250 ha         1 0Z4       0.117500
     61 H5           7.1460    -0.4830     1.9940 ha         1 0Z4       0.117500
     62 H6           4.8970    -1.4560     1.7100 ha         1 0Z4       0.124500
     63 H4           8.2820     2.6550     0.1350 hc         1 0Z4       0.051700
     64 H2'1         8.4400     1.4010     2.9250 hc         1 0Z4       0.036367
     65 H2'2         9.4120     2.7530     2.3080 hc         1 0Z4       0.036367
     66 H2'3         7.6620     2.9490     2.5280 hc         1 0Z4       0.036367
     67 H3'1         9.3420    -0.1060     0.9300 hc         1 0Z4       0.036367
     68 H3'2         9.1370     0.4850    -0.7330 hc         1 0Z4       0.036367
     69 H3'3        10.2970     1.2750     0.3540 hc         1 0Z4       0.036367
@<TRIPOS>BOND
     1     1     2 1   
     2     1     3 2   
     3     1     7 1   
     4     2     4 1   
     5     2     5 1   
     6     2     6 1   
     7     7     8 1   
     8     7    34 1   
     9     8     9 1   
    10     8    11 1   
    11     8    35 1   
    12     9    10 2   
    13     9    16 1   
    14    11    12 1   
    15    11    36 1   
    16    11    37 1   
    17    12    13 1   
    18    12    38 1   
    19    12    39 1   
    20    13    14 1   
    21    13    40 1   
    22    13    41 1   
    23    14    15 1   
    24    14    42 1   
    25    14    43 1   
    26    15    44 1   
    27    15    45 1   
    28    15    46 1   
    29    16    17 1   
    30    16    47 1   
    31    17    18 1   
    32    17    20 1   
    33    17    48 1   
    34    18    19 2   
    35    18    25 1   
    36    20    21 1   
    37    20    49 1   
    38    20    50 1   
    39    21    22 1   
    40    21    23 1   
    41    21    51 1   
    42    22    52 1   
    43    22    53 1   
    44    22    54 1   
    45    23    55 1   
    46    23    56 1   
    47    23    57 1   
    48    24    25 1   
    49    24    26 ar  
    50    24    30 ar  
    51    25    58 1   
    52    26    27 ar  
    53    26    59 1   
    54    27    28 ar  
    55    27    60 1   
    56    28    29 ar  
    57    28    31 1   
    58    29    30 ar  
    59    29    61 1   
    60    30    62 1   
    61    31    32 1   
    62    31    33 1   
    63    31    63 1   
    64    32    64 1   
    65    32    65 1   
    66    32    66 1   
    67    33    67 1   
    68    33    68 1   
    69    33    69 1   
@<TRIPOS>SUBSTRUCTURE
     1 0Z4         1 TEMP              0 ****  ****    0 ROOT
