@<TRIPOS>MOLECULE
0Z4
   69    69     1     0     0
SMALL
bcc


@<TRIPOS>ATOM
      1 H1          -4.4610    -0.3550     1.1710 c          1 0Z4       0.268000
      2 H2          -5.8340    -0.9450     1.5410 c3         1 0Z4       0.423000
      3 H           -3.8310     0.1960     2.0480 o          1 0Z4      -0.293000
      4 H1          -5.7650    -1.5570     2.7170 f          1 0Z4      -0.149000
      5 H2          -6.7300     0.0400     1.6410 f          1 0Z4      -0.149000
      6 H3          -6.2960    -1.8230     0.6480 f          1 0Z4      -0.149000
      7 H           -4.1340    -0.4550    -0.1160 n7         1 0Z4      -0.359000
      8 HA          -2.8830     0.0100    -0.6680 c3         1 0Z4       0.012000
      9 H           -1.7370    -0.8900    -0.1840 c          1 0Z4       0.296000
     10 H1          -1.9070    -1.7710     0.6390 o          1 0Z4      -0.322000
     11 HB          -2.6060     1.5010    -0.4240 c3         1 0Z4      -0.162000
     12 HG          -3.7790     2.3910    -0.8120 c3         1 0Z4      -0.146000
     13 HD          -3.4780     3.8620    -0.5540 c3         1 0Z4      -0.186000
     14 HE          -4.6690     4.7240    -0.9180 c3         1 0Z4      -0.110000
     15 HZ          -4.4100     6.1550    -0.6120 nz         1 0Z4      -0.063000
     16 H1          -0.5480    -0.6250    -0.7490 n7         1 0Z4      -0.375000
     17 HA1          0.6350    -1.4130    -0.4800 c3         1 0Z4       0.005000
     18 H3           1.8510    -0.5250    -0.7160 c          1 0Z4       0.309000
     19 H2           1.9390     0.1540    -1.7240 o          1 0Z4      -0.362000
     20 HB1          0.7130    -2.6390    -1.4020 c3         1 0Z4      -0.170000
     21 HG1          1.9220    -3.5520    -1.1920 c3         1 0Z4      -0.099000
     22 HD1          1.9560    -4.1490     0.2120 c3         1 0Z4      -0.207000
     23 HD2          1.9090    -4.6580    -2.2430 c3         1 0Z4      -0.207000
     24 H11          4.0660    -0.0030     0.2680 ca         1 0Z4       0.057000
     25 H11          2.7970    -0.6030     0.2430 nu         1 0Z4      -0.314000
     26 H21          4.7540     0.3990    -0.8740 ca         1 0Z4      -0.155500
     27 H31          6.0300     0.9360    -0.7510 ca         1 0Z4      -0.101500
     28 H4           6.6550     1.0880     0.4800 ca         1 0Z4      -0.076000
     29 H5           5.9500     0.6820     1.6130 ca         1 0Z4      -0.101500
     30 H6           4.6780     0.1480     1.5120 ca         1 0Z4      -0.155500
     31 H7           8.0490     1.6610     0.5870 c3         1 0Z4      -0.062000
     32 H8           8.0560     2.9720     1.3730 c3         1 0Z4      -0.203000
     33 H9           9.0190     0.6510     1.2010 c3         1 0Z4      -0.203000
     34 H           -4.7250    -0.9880    -0.7330 ha         1 0Z4       0.259000
     35 HA          -2.9780    -0.1350    -1.7470 ha         1 0Z4       0.110000
     36 HB2         -2.3290     1.6730     0.6170 ha         1 0Z4       0.111000
     37 HB3         -1.7400     1.7860    -1.0250 ha         1 0Z4       0.111000
     38 HG2         -4.0200     2.2420    -1.8690 ha         1 0Z4       0.096500
     39 HG3         -4.6720     2.1070    -0.2490 ha         1 0Z4       0.096500
     40 HD2         -3.2300     4.0040     0.5020 ha         1 0Z4       0.109000
     41 HD3         -2.6040     4.1750    -1.1320 ha         1 0Z4       0.109000
     42 HE2         -4.9020     4.6660    -1.9780 ha         1 0Z4       0.147000
     43 HE3         -5.5550     4.4400    -0.3530 ha         1 0Z4       0.147000
     44 HZ1         -5.2160     6.7380    -0.8340 ha         1 0Z4       0.253667
     45 HZ2         -4.2010     6.3000     0.3750 ha         1 0Z4       0.253667
     46 HZ3         -3.6220     6.5220    -1.1450 ha         1 0Z4       0.253667
     47 H1          -0.4920     0.0330    -1.5120 ha         1 0Z4       0.241000
     48 HA1          0.5870    -1.7340     0.5620 ha         1 0Z4       0.130000
     49 HB21        -0.2010    -3.2230    -1.2590 ha         1 0Z4       0.096500
     50 HB31         0.6970    -2.2840    -2.4370 ha         1 0Z4       0.096500
     51 HG           2.8390    -2.9700    -1.3390 ha         1 0Z4       0.093000
     52 HD11         2.7860    -4.8500     0.3160 ha         1 0Z4       0.076500
     53 HD12         2.0800    -3.3940     0.9890 ha         1 0Z4       0.076500
     54 HD13         1.0330    -4.6930     0.4270 ha         1 0Z4       0.076500
     55 HD21         1.9100    -4.2460    -3.2530 ha         1 0Z4       0.076500
     56 HD22         2.7830    -5.3030    -2.1450 ha         1 0Z4       0.076500
     57 HD23         1.0210    -5.2860    -2.1400 ha         1 0Z4       0.076500
     58 HN11         2.5460    -1.1050     1.0810 ha         1 0Z4       0.238000
     59 H2           4.3230     0.2870    -1.8550 ha         1 0Z4       0.142500
     60 H3           6.5510     1.2360    -1.6530 ha         1 0Z4       0.135500
     61 H5           6.3930     0.7800     2.5960 ha         1 0Z4       0.135500
     62 H6           4.1540    -0.1600     2.4100 ha         1 0Z4       0.142500
     63 H4           8.3920     1.8800    -0.4290 ha         1 0Z4       0.091000
     64 H2'1         7.7350     2.8190     2.4060 ha         1 0Z4       0.075667
     65 H2'2         9.0610     3.3970     1.4020 ha         1 0Z4       0.075667
     66 H2'3         7.3930     3.7110     0.9230 ha         1 0Z4       0.075667
     67 H3'1         8.7290     0.3930     2.2220 ha         1 0Z4       0.075667
     68 H3'2         9.0530    -0.2710     0.6200 ha         1 0Z4       0.075667
     69 H3'3        10.0290     1.0610     1.2390 ha         1 0Z4       0.075667
@<TRIPOS>BOND
     1     1     2 1   
     2     1     3 2   
     3     1     7 1   
     4     2     4 1   
     5     2     5 1   
     6     2     6 1   
     7     7     8 1   
     8     7    34 1   
     9     8     9 1   
    10     8    11 1   
    11     8    35 1   
    12     9    10 2   
    13     9    16 1   
    14    11    12 1   
    15    11    36 1   
    16    11    37 1   
    17    12    13 1   
    18    12    38 1   
    19    12    39 1   
    20    13    14 1   
    21    13    40 1   
    22    13    41 1   
    23    14    15 1   
    24    14    42 1   
    25    14    43 1   
    26    15    44 1   
    27    15    45 1   
    28    15    46 1   
    29    16    17 1   
    30    16    47 1   
    31    17    18 1   
    32    17    20 1   
    33    17    48 1   
    34    18    19 2   
    35    18    25 1   
    36    20    21 1   
    37    20    49 1   
    38    20    50 1   
    39    21    22 1   
    40    21    23 1   
    41    21    51 1   
    42    22    52 1   
    43    22    53 1   
    44    22    54 1   
    45    23    55 1   
    46    23    56 1   
    47    23    57 1   
    48    24    25 1   
    49    24    26 ar  
    50    24    30 ar  
    51    25    58 1   
    52    26    27 ar  
    53    26    59 1   
    54    27    28 ar  
    55    27    60 1   
    56    28    29 ar  
    57    28    31 1   
    58    29    30 ar  
    59    29    61 1   
    60    30    62 1   
    61    31    32 1   
    62    31    33 1   
    63    31    63 1   
    64    32    64 1   
    65    32    65 1   
    66    32    66 1   
    67    33    67 1   
    68    33    68 1   
    69    33    69 1   
@<TRIPOS>SUBSTRUCTURE
     1 0Z4         1 TEMP              0 ****  ****    0 ROOT
