@<TRIPOS>MOLECULE
0Z6
   71    72     1     0     0
SMALL
bcc


@<TRIPOS>ATOM
      1 N           34.5400     5.0680    11.9610 n8         1 0Z6      -0.890800
      2 CA          34.7700     5.6510    10.6600 c3         1 0Z6       0.091500
      3 C           33.8520     6.8530    10.4820 c          1 0Z6       0.686100
      4 O           33.3540     7.4390    11.4300 o          1 0Z6      -0.638100
      5 CB          36.2340     6.0760    10.3640 c3         1 0Z6      -0.065100
      6 CG          36.7010     7.2420    11.1870 ca         1 0Z6      -0.093300
      7 CD1         37.1680     7.0640    12.4890 ca         1 0Z6      -0.123500
      8 CD2         36.6470     8.5370    10.6730 ca         1 0Z6      -0.123500
      9 CE1         37.5550     8.1520    13.2610 ca         1 0Z6      -0.123500
     10 CE2         37.0350     9.6260    11.4410 ca         1 0Z6      -0.123500
     11 CZ          37.4870     9.4380    12.7410 ca         1 0Z6      -0.120000
     12 N1          33.6820     7.2610     9.2120 ns         1 0Z6      -0.549900
     13 CA1         32.9250     8.4390     8.8830 c3         1 0Z6       0.041700
     14 C1          31.4240     8.1660     9.0070 c          1 0Z6       0.654100
     15 O1          30.9400     7.1260     8.5940 o          1 0Z6      -0.593100
     16 CB1         33.2590     8.8940     7.4570 c3         1 0Z6      -0.041100
     17 CG1         34.6970     9.3190     7.3430 ca         1 0Z6      -0.093300
     18 CD11        35.0970    10.5650     7.8220 ca         1 0Z6      -0.127000
     19 CD21        35.6610     8.4710     6.8060 ca         1 0Z6      -0.127000
     20 CE11        36.4280    10.9550     7.7670 ca         1 0Z6      -0.123500
     21 CE21        36.9950     8.8550     6.7500 ca         1 0Z6      -0.123500
     22 CZ1         37.3830    10.0980     7.2330 ca         1 0Z6      -0.118000
     23 N2          30.7200     9.1670     9.5620 ns         1 0Z6      -0.568900
     24 CA2         29.3060     9.1010     9.8510 c3         1 0Z6       0.110700
     25 C2          28.5430    10.2670     9.2110 c3         1 0Z6       0.135100
     26 O2          27.1790     9.9410     9.3350 oh         1 0Z6      -0.595800
     27 CB2         29.0680     9.0360    11.3610 c3         1 0Z6      -0.085400
     28 CG2         29.7420     7.8360    12.0090 c3         1 0Z6      -0.101400
     29 CD          29.4320     7.7660    13.4940 c3         1 0Z6       0.034300
     30 NE          30.1490     6.6570    14.1030 nu         1 0Z6      -0.397100
     31 CZ2         29.8960     6.1660    15.3090 cz         1 0Z6       0.526300
     32 NH1         28.9390     6.6920    16.0630 nv         1 0Z6      -0.513200
     33 NH2         30.5960     5.1320    15.7620 nv         1 0Z6      -0.513200
     34 C3          28.8710    10.4630     7.7290 c3         1 0Z6       0.020000
     35 CL          30.3130    11.5090     7.4830 cl         1 0Z6      -0.203400
     36 H           35.1960     4.3110    12.1080 hn         1 0Z6       0.354300
     37 H2          34.7160     5.7490    12.6890 hn         1 0Z6       0.354300
     38 HA          34.5080     4.9030     9.9050 h1         1 0Z6       0.076700
     39 HB2         36.8650     5.2030    10.5490 hc         1 0Z6       0.059700
     40 HB3         36.3330     6.3090     9.3010 hc         1 0Z6       0.059700
     41 HD1         37.2440     6.0650    12.9000 ha         1 0Z6       0.129500
     42 HD2         36.3020     8.7000     9.6580 ha         1 0Z6       0.129500
     43 HE1         37.9160     7.9930    14.2700 ha         1 0Z6       0.133000
     44 HE2         36.9890    10.6230    11.0210 ha         1 0Z6       0.133000
     45 HZ          37.7930    10.2850    13.3410 ha         1 0Z6       0.135000
     46 H1          34.0160     6.6780     8.4610 hn         1 0Z6       0.331500
     47 HA1         33.2100     9.2380     9.5730 h1         1 0Z6       0.077700
     48 HB21        33.0400     8.0850     6.7550 hc         1 0Z6       0.072200
     49 HB31        32.6000     9.7250     7.1980 hc         1 0Z6       0.072200
     50 HD11        34.3560    11.2390     8.2390 ha         1 0Z6       0.127000
     51 HD21        35.3660     7.5010     6.4200 ha         1 0Z6       0.127000
     52 HE11        36.7200    11.9280     8.1410 ha         1 0Z6       0.137500
     53 HE21        37.7310     8.1820     6.3310 ha         1 0Z6       0.137500
     54 HZ1         38.4210    10.3980     7.1910 ha         1 0Z6       0.140000
     55 H3          31.2300     9.9550     9.9310 hn         1 0Z6       0.320500
     56 HA2         28.9370     8.1810     9.3900 h1         1 0Z6       0.102700
     57 HB22        29.4340     9.9600    11.8220 hc         1 0Z6       0.055200
     58 HB32        27.9930     8.9980    11.5460 hc         1 0Z6       0.055200
     59 HG2         29.4080     6.9130    11.5270 hc         1 0Z6       0.079200
     60 HG3         30.8240     7.8950    11.8750 hc         1 0Z6       0.079200
     61 HD22        29.7070     8.7080    13.9790 h1         1 0Z6       0.061200
     62 HD3         28.3580     7.6210    13.6350 h1         1 0Z6       0.061200
     63 HE          30.9690     6.3120    13.6230 hn         1 0Z6       0.337700
     64 HH11        28.7270     6.3060    16.9680 hn         1 0Z6       0.326200
     65 HH12        28.5130     7.5750    15.8410 hn         1 0Z6       0.326200
     66 HH21        30.4220     4.7430    16.6740 hn         1 0Z6       0.326200
     67 HH22        31.2170     4.6200    15.1580 hn         1 0Z6       0.326200
     68 H11         29.0590     9.5180     7.2200 h1         1 0Z6       0.082700
     69 H21         28.0480    10.9720     7.2300 h1         1 0Z6       0.082700
     70 H35         28.7800    11.1960     9.7480 h1         1 0Z6       0.046700
     71 H36         26.6550    10.7400     9.2190 ho         1 0Z6       0.420000
@<TRIPOS>BOND
     1     1     2 1   
     2     1    36 1   
     3     1    37 1   
     4     2     3 1   
     5     2     5 1   
     6     2    38 1   
     7     3     4 2   
     8     3    12 1   
     9     5     6 1   
    10     5    39 1   
    11     5    40 1   
    12     6     7 ar  
    13     6     8 ar  
    14     7     9 ar  
    15     7    41 1   
    16     8    10 ar  
    17     8    42 1   
    18     9    11 ar  
    19     9    43 1   
    20    10    11 ar  
    21    10    44 1   
    22    11    45 1   
    23    12    13 1   
    24    12    46 1   
    25    13    14 1   
    26    13    16 1   
    27    13    47 1   
    28    14    15 2   
    29    14    23 1   
    30    16    17 1   
    31    16    48 1   
    32    16    49 1   
    33    17    18 ar  
    34    17    19 ar  
    35    18    20 ar  
    36    18    50 1   
    37    19    21 ar  
    38    19    51 1   
    39    20    22 ar  
    40    20    52 1   
    41    21    22 ar  
    42    21    53 1   
    43    22    54 1   
    44    23    24 1   
    45    23    55 1   
    46    24    25 1   
    47    24    27 1   
    48    24    56 1   
    49    25    26 1   
    50    25    34 1   
    51    25    70 1   
    52    26    71 1   
    53    27    28 1   
    54    27    57 1   
    55    27    58 1   
    56    28    29 1   
    57    28    59 1   
    58    28    60 1   
    59    29    30 1   
    60    29    61 1   
    61    29    62 1   
    62    30    31 2   
    63    30    63 1   
    64    31    32 1   
    65    31    33 1   
    66    32    64 1   
    67    32    65 1   
    68    33    66 1   
    69    33    67 1   
    70    34    35 1   
    71    34    68 1   
    72    34    69 1   
@<TRIPOS>SUBSTRUCTURE
     1 0Z6         1 TEMP              0 ****  ****    0 ROOT
