@<TRIPOS>MOLECULE
0Z7
   76    77     1     0     0
SMALL
No Charge or Current Charge


@<TRIPOS>ATOM
      1 C1          -2.9020    -3.9650    -1.3810 c3         1 0Z7       0.082600
      2 C2          -4.1630    -3.0730    -1.2170 c3         1 0Z7       0.153300
      3 C3          -1.4980    -1.1440    -0.1380 c          1 0Z7       0.579100
      4 N1           3.4090     2.0260     1.7040 ns         1 0Z7      -0.495900
      5 C4           2.7930     0.7560     1.2390 c3         1 0Z7       0.053700
      6 C5           1.4690     1.0000     0.4450 c          1 0Z7       0.594100
      7 O1           1.0390     2.1140     0.1660 o          1 0Z7      -0.592100
      8 C6           3.7890    -0.1650     0.4770 c3         1 0Z7      -0.034100
      9 C7           5.1160    -0.3480     1.2100 ca         1 0Z7      -0.087300
     10 C8           5.1600    -1.0500     2.4310 ca         1 0Z7      -0.106000
     11 C9           6.3070     0.1830     0.6750 ca         1 0Z7      -0.106000
     12 C10          6.3800    -1.2150     3.1100 ca         1 0Z7      -0.110000
     13 C11          7.5250     0.0190     1.3550 ca         1 0Z7      -0.110000
     14 C12          7.5630    -0.6800     2.5740 ca         1 0Z7      -0.104000
     15 N2           0.7810    -0.1470     0.0960 ns         1 0Z7      -0.496900
     16 C13         -0.4360    -0.1880    -0.7500 c3         1 0Z7       0.033700
     17 O2          -1.2510    -1.9280     0.7690 o          1 0Z7      -0.596100
     18 C14         -0.0840    -0.5980    -2.2040 c3         1 0Z7      -0.036100
     19 C15          1.0530     0.2220    -2.8060 ca         1 0Z7      -0.095300
     20 C16          0.8310     1.5550    -3.2050 ca         1 0Z7      -0.101000
     21 C17          2.3360    -0.3410    -2.9580 ca         1 0Z7      -0.101000
     22 C18          1.8810     2.3180    -3.7450 ca         1 0Z7      -0.100500
     23 C19          3.3860     0.4220    -3.4970 ca         1 0Z7      -0.100500
     24 C20          3.1590     1.7520    -3.8900 ca         1 0Z7      -0.089000
     25 N3          -2.7560    -1.0570    -0.7020 ns         1 0Z7      -0.516900
     26 C21         -3.9290    -1.8430    -0.2810 c3         1 0Z7       0.073700
     27 O3          -5.2640    -3.8660    -0.7280 oh         1 0Z7      -0.635000
     28 C22         -5.1690    -0.9160    -0.1680 c3         1 0Z7      -0.087400
     29 C23         -4.9880     0.2680     0.8150 c3         1 0Z7      -0.094400
     30 C24         -6.2590     1.1270     0.9500 c3         1 0Z7       0.059600
     31 N4          -6.0220     2.2300     1.9000 nu         1 0Z7      -0.892000
     32 C25         -6.8480     3.1790     2.2870 cz         1 0Z7       0.937600
     33 N5          -6.4380     4.0640     3.1440 nv         1 0Z7      -0.612300
     34 N6          -8.0610     3.2330     1.8210 nv         1 0Z7      -0.612300
     35 O4           4.1960     2.8330    -0.2940 o          1 0Z7      -0.588100
     36 C27          4.6400     4.1320     1.6820 c3         1 0Z7      -0.180100
     37 H1          -2.0950    -3.3960    -1.8590 h1         1 0Z7       0.076700
     38 H2          -2.5490    -4.3190    -0.4040 h1         1 0Z7       0.076700
     39 H4          -4.4120    -2.6800    -2.2140 h1         1 0Z7       0.087700
     40 H5           3.3680     2.2390     2.6930 hn         1 0Z7       0.313500
     41 H6           2.4900     0.2130     2.1430 h1         1 0Z7       0.057700
     42 H7           3.3300    -1.1480     0.3200 hc         1 0Z7       0.068700
     43 H8           3.9610     0.2410    -0.5270 hc         1 0Z7       0.068700
     44 H9           4.2500    -1.4690     2.8540 ha         1 0Z7       0.115000
     45 H10          6.2890     0.7280    -0.2660 ha         1 0Z7       0.115000
     46 H11          6.4070    -1.7580     4.0530 ha         1 0Z7       0.115500
     47 H12          8.4410     0.4330     0.9380 ha         1 0Z7       0.115500
     48 H13          8.5060    -0.8080     3.1000 ha         1 0Z7       0.117000
     49 H14          1.1600    -1.0280     0.4240 hn         1 0Z7       0.331500
     50 H15         -0.8910     0.8110    -0.7700 h1         1 0Z7       0.090700
     51 H16          0.1800    -1.6640    -2.2140 hc         1 0Z7       0.055200
     52 H17         -0.9770    -0.5050    -2.8340 hc         1 0Z7       0.055200
     53 H18         -0.1540     2.0020    -3.0900 ha         1 0Z7       0.103000
     54 H19          2.5230    -1.3670    -2.6520 ha         1 0Z7       0.103000
     55 H20          1.7050     3.3480    -4.0470 ha         1 0Z7       0.118000
     56 H21          4.3750    -0.0160    -3.6080 ha         1 0Z7       0.118000
     57 H22          3.9730     2.3440    -4.3040 ha         1 0Z7       0.121000
     58 H23         -2.8780    -0.3750    -1.4430 hn         1 0Z7       0.318500
     59 H24         -3.7300    -2.2350     0.7270 h1         1 0Z7       0.084700
     60 H25         -4.9260    -4.4260     0.0040 ho         1 0Z7       0.448000
     61 H26         -5.4190    -0.5250    -1.1630 hc         1 0Z7       0.063200
     62 H27         -6.0330    -1.5070     0.1610 hc         1 0Z7       0.063200
     63 H28         -4.7110    -0.1240     1.8010 hc         1 0Z7       0.065700
     64 H29         -4.1630     0.9070     0.4770 hc         1 0Z7       0.065700
     65 H30         -6.5290     1.5250    -0.0390 h1         1 0Z7       0.066200
     66 H31         -7.0860     0.4920     1.3000 h1         1 0Z7       0.066200
     67 H32         -5.0970     2.2630     2.3140 hn         1 0Z7       0.376000
     68 H33         -5.5040     4.0410     3.5180 hn         1 0Z7       0.380000
     69 H34         -7.0340     4.8070     3.4690 hn         1 0Z7       0.380000
     70 H35         -8.3860     2.5510     1.1580 hn         1 0Z7       0.380000
     71 H36          5.3000     3.7610     2.4730 hc         1 0Z7       0.060700
     72 H37          5.1530     4.8480     1.0300 hc         1 0Z7       0.060700
     73 H38          3.8350     4.6090     2.2530 hc         1 0Z7       0.060700
     74 Cl1         -3.2090    -5.4250    -2.4270 cl         1 0Z7      -0.244000
     75 H39         -8.7130     3.9460     2.1000 hn         1 0Z7       0.380000
     76 C26          4.0700     2.9460     0.9160 c          1 0Z7       0.613100
@<TRIPOS>BOND
     1     1     2 1   
     2     1    37 1   
     3     1    38 1   
     4     1    74 1   
     5     2    26 1   
     6     2    27 1   
     7     2    39 1   
     8     3    16 1   
     9     3    17 2   
    10     3    25 1   
    11     4     5 1   
    12     4    40 1   
    13     4    76 1   
    14     5     6 1   
    15     5     8 1   
    16     5    41 1   
    17     6     7 2   
    18     6    15 1   
    19     8     9 1   
    20     8    42 1   
    21     8    43 1   
    22     9    10 ar  
    23     9    11 ar  
    24    10    12 ar  
    25    10    44 1   
    26    11    13 ar  
    27    11    45 1   
    28    12    14 ar  
    29    12    46 1   
    30    13    14 ar  
    31    13    47 1   
    32    14    48 1   
    33    15    16 1   
    34    15    49 1   
    35    16    18 1   
    36    16    50 1   
    37    18    19 1   
    38    18    51 1   
    39    18    52 1   
    40    19    20 ar  
    41    19    21 ar  
    42    20    22 ar  
    43    20    53 1   
    44    21    23 ar  
    45    21    54 1   
    46    22    24 ar  
    47    22    55 1   
    48    23    24 ar  
    49    23    56 1   
    50    24    57 1   
    51    25    26 1   
    52    25    58 1   
    53    26    28 1   
    54    26    59 1   
    55    27    60 1   
    56    28    29 1   
    57    28    61 1   
    58    28    62 1   
    59    29    30 1   
    60    29    63 1   
    61    29    64 1   
    62    30    31 1   
    63    30    65 1   
    64    30    66 1   
    65    31    32 2   
    66    31    67 1   
    67    32    33 1   
    68    32    34 1   
    69    33    68 1   
    70    33    69 1   
    71    34    70 1   
    72    34    75 1   
    73    35    76 2   
    74    36    71 1   
    75    36    72 1   
    76    36    73 1   
    77    36    76 1   
@<TRIPOS>SUBSTRUCTURE
     1 0Z7         1 TEMP              0 ****  ****    0 ROOT
