@<TRIPOS>MOLECULE
0Z7
   76    77     1     0     0
SMALL
abcg2


@<TRIPOS>ATOM
      1 C1          -3.1150    -3.8250    -1.6410 c3         1 0Z7       0.082600
      2 C2          -4.2540    -2.8520    -1.3700 c3         1 0Z7       0.153300
      3 C3          -1.4010    -1.2240    -0.3510 c          1 0Z7       0.579100
      4 N1           2.9230     2.0260     1.7400 ns         1 0Z7      -0.495900
      5 C4           2.5500     0.7740     1.1440 c3         1 0Z7       0.053700
      6 C5           1.3040     0.9260     0.2600 c          1 0Z7       0.594100
      7 O1           0.7980     2.0050     0.0180 o          1 0Z7      -0.592100
      8 C6           3.7030     0.0620     0.4050 c3         1 0Z7      -0.034100
      9 C7           4.9110    -0.1000     1.2840 ca         1 0Z7      -0.087300
     10 C8           4.9540    -1.1150     2.2390 ca         1 0Z7      -0.106000
     11 C9           6.0000     0.7620     1.1830 ca         1 0Z7      -0.106000
     12 C10          6.0520    -1.2620     3.0750 ca         1 0Z7      -0.110000
     13 C11          7.1020     0.6170     2.0160 ca         1 0Z7      -0.110000
     14 C12          7.1320    -0.3940     2.9670 ca         1 0Z7      -0.104000
     15 N2           0.8120    -0.2470    -0.1830 ns         1 0Z7      -0.496900
     16 C13         -0.3330    -0.3720    -1.0360 c3         1 0Z7       0.033700
     17 O2          -1.1170    -2.0090     0.5390 o          1 0Z7      -0.596100
     18 C14          0.0480    -1.0110    -2.3880 c3         1 0Z7      -0.036100
     19 C15          1.1480    -0.2440    -3.0630 ca         1 0Z7      -0.095300
     20 C16          0.8700     0.9430    -3.7370 ca         1 0Z7      -0.101000
     21 C17          2.4690    -0.6760    -2.9930 ca         1 0Z7      -0.101000
     22 C18          1.8870     1.6820    -4.3230 ca         1 0Z7      -0.100500
     23 C19          3.4900     0.0610    -3.5770 ca         1 0Z7      -0.100500
     24 C20          3.2030     1.2440    -4.2420 ca         1 0Z7      -0.089000
     25 N3          -2.6390    -1.0680    -0.8480 ns         1 0Z7      -0.516900
     26 C21         -3.8130    -1.7680    -0.3660 c3         1 0Z7       0.073700
     27 O3          -5.4100    -3.5130    -0.9310 oh         1 0Z7      -0.635000
     28 C22         -4.9360    -0.7700    -0.0910 c3         1 0Z7      -0.087400
     29 C23         -4.5470     0.2900     0.9310 c3         1 0Z7      -0.094400
     30 C24         -5.7170     1.2150     1.2200 c3         1 0Z7       0.059600
     31 N4          -5.3240     2.2490     2.1610 nu         1 0Z7      -0.892000
     32 C25         -6.1340     3.1990     2.6070 cz         1 0Z7       0.937600
     33 N5          -5.6840     4.0990     3.4710 nv         1 0Z7      -0.612300
     34 N6          -7.3910     3.2570     2.1910 nv         1 0Z7      -0.612300
     35 O4           3.7350     3.0560    -0.1050 o          1 0Z7      -0.588100
     36 C27          3.7420     4.2760     1.9540 c3         1 0Z7      -0.180100
     37 H1          -2.2560    -3.3240    -2.0770 h1         1 0Z7       0.076700
     38 H2          -2.8020    -4.3400    -0.7320 h1         1 0Z7       0.076700
     39 H4          -4.5230    -2.3620    -2.3110 h1         1 0Z7       0.087700
     40 H5           2.6840     2.1510     2.7090 hn         1 0Z7       0.313500
     41 H6           2.2570     0.1310     1.9800 h1         1 0Z7       0.057700
     42 H7           3.3560    -0.9230     0.0900 hc         1 0Z7       0.068700
     43 H8           3.9520     0.6070    -0.5030 hc         1 0Z7       0.068700
     44 H9           4.1210    -1.8030     2.3270 ha         1 0Z7       0.115000
     45 H10          5.9870     1.5540     0.4450 ha         1 0Z7       0.115000
     46 H11          6.0670    -2.0580     3.8080 ha         1 0Z7       0.115500
     47 H12          7.9410     1.2950     1.9190 ha         1 0Z7       0.115500
     48 H13          7.9910    -0.5090     3.6150 ha         1 0Z7       0.117000
     49 H14          1.2310    -1.1050     0.1410 hn         1 0Z7       0.331500
     50 H15         -0.7250     0.6310    -1.2160 h1         1 0Z7       0.090700
     51 H16          0.3570    -2.0460    -2.2190 hc         1 0Z7       0.055200
     52 H17         -0.8370    -1.0450    -3.0280 hc         1 0Z7       0.055200
     53 H18         -0.1540     1.2930    -3.8080 ha         1 0Z7       0.103000
     54 H19          2.7060    -1.6010    -2.4790 ha         1 0Z7       0.103000
     55 H20          1.6510     2.6010    -4.8460 ha         1 0Z7       0.118000
     56 H21          4.5120    -0.2910    -3.5100 ha         1 0Z7       0.118000
     57 H22          3.9970     1.8200    -4.6990 ha         1 0Z7       0.121000
     58 H23         -2.7820    -0.3730    -1.5670 hn         1 0Z7       0.318500
     59 H24         -3.5320    -2.2550     0.5730 h1         1 0Z7       0.084700
     60 H25         -5.2120    -3.9750    -0.1080 ho         1 0Z7       0.448000
     61 H26         -5.2350    -0.2900    -1.0300 hc         1 0Z7       0.063200
     62 H27         -5.8090    -1.3170     0.2690 hc         1 0Z7       0.063200
     63 H28         -4.2250    -0.1900     1.8600 hc         1 0Z7       0.065700
     64 H29         -3.7040     0.8810     0.5640 hc         1 0Z7       0.065700
     65 H30         -6.0610     1.6730     0.2870 h1         1 0Z7       0.066200
     66 H31         -6.5490     0.6370     1.6330 h1         1 0Z7       0.066200
     67 H32         -4.3780     2.2390     2.5090 hn         1 0Z7       0.376000
     68 H33         -4.7420     4.0620     3.8210 hn         1 0Z7       0.380000
     69 H34         -6.2870     4.8120     3.8450 hn         1 0Z7       0.380000
     70 H35         -7.7660     2.6020     1.5260 hn         1 0Z7       0.380000
     71 H36          4.7700     4.2180     2.3160 hc         1 0Z7       0.060700
     72 H37          3.6460     5.1890     1.3710 hc         1 0Z7       0.060700
     73 H38          3.0870     4.3410     2.8220 hc         1 0Z7       0.060700
     74 CL1         -3.6280    -5.0800    -2.8170 cl         1 0Z7      -0.244000
     75 H39         -8.0160     3.9700     2.5270 hn         1 0Z7       0.380000
     76 C26          3.4540     3.0760     1.0830 c          1 0Z7       0.613100
@<TRIPOS>BOND
     1     1     2 1   
     2     1    37 1   
     3     1    38 1   
     4     1    74 1   
     5     2    26 1   
     6     2    27 1   
     7     2    39 1   
     8     3    16 1   
     9     3    17 2   
    10     3    25 1   
    11     4     5 1   
    12     4    40 1   
    13     4    76 1   
    14     5     6 1   
    15     5     8 1   
    16     5    41 1   
    17     6     7 2   
    18     6    15 1   
    19     8     9 1   
    20     8    42 1   
    21     8    43 1   
    22     9    10 ar  
    23     9    11 ar  
    24    10    12 ar  
    25    10    44 1   
    26    11    13 ar  
    27    11    45 1   
    28    12    14 ar  
    29    12    46 1   
    30    13    14 ar  
    31    13    47 1   
    32    14    48 1   
    33    15    16 1   
    34    15    49 1   
    35    16    18 1   
    36    16    50 1   
    37    18    19 1   
    38    18    51 1   
    39    18    52 1   
    40    19    20 ar  
    41    19    21 ar  
    42    20    22 ar  
    43    20    53 1   
    44    21    23 ar  
    45    21    54 1   
    46    22    24 ar  
    47    22    55 1   
    48    23    24 ar  
    49    23    56 1   
    50    24    57 1   
    51    25    26 1   
    52    25    58 1   
    53    26    28 1   
    54    26    59 1   
    55    27    60 1   
    56    28    29 1   
    57    28    61 1   
    58    28    62 1   
    59    29    30 1   
    60    29    63 1   
    61    29    64 1   
    62    30    31 1   
    63    30    65 1   
    64    30    66 1   
    65    31    32 2   
    66    31    67 1   
    67    32    33 1   
    68    32    34 1   
    69    33    68 1   
    70    33    69 1   
    71    34    70 1   
    72    34    75 1   
    73    35    76 2   
    74    36    71 1   
    75    36    72 1   
    76    36    73 1   
    77    36    76 1   
@<TRIPOS>SUBSTRUCTURE
     1 0Z7         1 TEMP              0 ****  ****    0 ROOT
