@<TRIPOS>MOLECULE
0Z9
   50    50     1     0     0
SMALL
bcc


@<TRIPOS>ATOM
      1 O4         -14.1460    21.7800    31.4290 os         1 0Z9      -0.436900
      2 O5         -12.4990    21.1390    32.8280 o          1 0Z9      -0.575000
      3 C11        -13.2260    22.5950    30.6950 c3         1 0Z9       0.208700
      4 C12        -13.9840    23.1840    29.5440 ca         1 0Z9      -0.099300
      5 C13        -15.4400    24.2550    27.4190 ca         1 0Z9      -0.118000
      6 C14        -14.8940    22.9810    27.3180 ca         1 0Z9      -0.134500
      7 C15        -14.1700    22.4500    28.3760 ca         1 0Z9      -0.102500
      8 C16        -14.5340    24.4580    29.6370 ca         1 0Z9      -0.102500
      9 C17        -15.2580    24.9940    28.5800 ca         1 0Z9      -0.134500
     10 C10        -13.6580    21.1010    32.4720 c          1 0Z9       0.756100
     11 N          -14.6190    20.3600    33.0560 ns         1 0Z9      -0.554900
     12 CA         -14.3790    19.6370    34.2770 c3         1 0Z9       0.068700
     13 C          -13.9710    20.6200    35.3850 c          1 0Z9       0.658100
     14 O          -14.2690    21.8020    35.3310 o          1 0Z9      -0.595100
     15 CB         -13.4310    18.4410    34.1080 c3         1 0Z9      -0.086400
     16 CG         -13.7190    17.5580    32.8950 c3         1 0Z9      -0.056700
     17 CD1        -12.6930    16.4310    32.8390 c3         1 0Z9      -0.089100
     18 CD2        -15.1350    16.9920    32.9100 c3         1 0Z9      -0.089100
     19 N1         -13.3240    20.1050    36.4430 ns         1 0Z9      -0.558900
     20 CA1        -12.8750    20.9480    37.5210 c3         1 0Z9       0.038700
     21 CB1        -12.2460    20.0970    38.6170 c3         1 0Z9      -0.107100
     22 C1         -11.8360    21.9470    37.0060 c          1 0Z9       0.658100
     23 O1         -10.9870    21.6440    36.1910 o          1 0Z9      -0.548100
     24 N2         -11.9450    23.1610    37.5730 ns         1 0Z9      -0.449400
     25 OH         -10.9420    24.0730    37.4370 oh         1 0Z9      -0.389100
     26 H19        -12.8230    23.3810    31.3370 h1         1 0Z9       0.057200
     27 H20        -12.3910    21.9880    30.3370 h1         1 0Z9       0.057200
     28 H21        -16.0020    24.6710    26.5930 ha         1 0Z9       0.130000
     29 H22        -15.0290    22.4030    26.4130 ha         1 0Z9       0.131500
     30 H23        -13.7410    21.4590    28.2890 ha         1 0Z9       0.133000
     31 H24        -14.3930    25.0390    30.5410 ha         1 0Z9       0.133000
     32 H25        -15.6780    25.9880    28.6630 ha         1 0Z9       0.131500
     33 H          -15.5700    20.4660    32.7430 hn         1 0Z9       0.333500
     34 HA         -15.3550    19.2480    34.5810 h1         1 0Z9       0.065700
     35 HB2        -12.3970    18.7900    34.0610 hc         1 0Z9       0.056700
     36 HB3        -13.5110    17.8100    35.0000 hc         1 0Z9       0.056700
     37 HG         -13.6020    18.1630    31.9900 hc         1 0Z9       0.060700
     38 HD11       -12.8410    15.8050    31.9580 hc         1 0Z9       0.032867
     39 HD12       -11.6740    16.8210    32.8030 hc         1 0Z9       0.032867
     40 HD13       -12.7710    15.7880    33.7190 hc         1 0Z9       0.032867
     41 HD21       -15.2880    16.3120    32.0700 hc         1 0Z9       0.032867
     42 HD22       -15.3200    16.4290    33.8280 hc         1 0Z9       0.032867
     43 HD23       -15.8960    17.7700    32.8350 hc         1 0Z9       0.032867
     44 HN1        -13.0250    19.1430    36.4420 hn         1 0Z9       0.326500
     45 HA1        -13.7310    21.4850    37.9400 h1         1 0Z9       0.067700
     46 HB1        -11.9190    20.7230    39.4460 hc         1 0Z9       0.052367
     47 HB21       -12.9700    19.3810    39.0040 hc         1 0Z9       0.052367
     48 HB31       -11.3810    19.5490    38.2420 hc         1 0Z9       0.052367
     49 HN2        -12.5890    23.3490    38.3290 hn         1 0Z9       0.332500
     50 HO         -11.2150    24.6680    36.7260 ho         1 0Z9       0.411000
@<TRIPOS>BOND
     1     1     3 1   
     2     1    10 1   
     3     2    10 2   
     4     3     4 1   
     5     3    26 1   
     6     3    27 1   
     7     4     7 ar  
     8     4     8 ar  
     9     5     6 ar  
    10     5     9 ar  
    11     5    28 1   
    12     6     7 ar  
    13     6    29 1   
    14     7    30 1   
    15     8     9 ar  
    16     8    31 1   
    17     9    32 1   
    18    10    11 1   
    19    11    12 1   
    20    11    33 1   
    21    12    13 1   
    22    12    15 1   
    23    12    34 1   
    24    13    14 2   
    25    13    19 1   
    26    15    16 1   
    27    15    35 1   
    28    15    36 1   
    29    16    17 1   
    30    16    18 1   
    31    16    37 1   
    32    17    38 1   
    33    17    39 1   
    34    17    40 1   
    35    18    41 1   
    36    18    42 1   
    37    18    43 1   
    38    19    20 1   
    39    19    44 1   
    40    20    21 1   
    41    20    22 1   
    42    20    45 1   
    43    21    46 1   
    44    21    47 1   
    45    21    48 1   
    46    22    23 2   
    47    22    24 1   
    48    24    25 1   
    49    24    49 1   
    50    25    50 1   
@<TRIPOS>SUBSTRUCTURE
     1 0Z9         1 TEMP              0 ****  ****    0 ROOT
