@<TRIPOS>MOLECULE
0Z9
   50    50     1     0     0
SMALL
No Charge or Current Charge


@<TRIPOS>ATOM
      1 O4         -14.3200    21.8460    31.0020 os         1 0Z9      -0.460100
      2 O5         -12.3470    21.6280    32.1590 o          1 0Z9      -0.526000
      3 C11        -13.6860    22.6230    29.9730 c3         1 0Z9       0.231900
      4 C12        -14.7350    22.9850    28.9300 ca         1 0Z9      -0.099300
      5 C13        -16.6770    23.6560    26.9970 ca         1 0Z9      -0.100000
      6 C14        -15.9570    22.4550    26.8830 ca         1 0Z9      -0.116500
      7 C15        -14.9890    22.1200    27.8470 ca         1 0Z9      -0.084500
      8 C16        -15.4620    24.1870    29.0400 ca         1 0Z9      -0.084500
      9 C17        -16.4290    24.5220    28.0760 ca         1 0Z9      -0.116500
     10 C10        -13.5430    21.4160    32.0320 c          1 0Z9       0.640100
     11 N          -14.3230    20.6920    32.8910 ns         1 0Z9      -0.487900
     12 CA         -13.8590    20.0280    34.1340 c3         1 0Z9       0.068700
     13 C          -13.5350    21.0740    35.2540 c          1 0Z9       0.591100
     14 O          -13.7090    22.2810    35.1260 o          1 0Z9      -0.595100
     15 CB         -12.7100    18.9990    33.8940 c3         1 0Z9      -0.086400
     16 CG         -12.9430    17.9790    32.7420 c3         1 0Z9      -0.056700
     17 CD1        -11.6970    17.0890    32.5330 c3         1 0Z9      -0.089100
     18 CD2        -14.2060    17.1120    32.9610 c3         1 0Z9      -0.089100
     19 N1         -13.0300    20.5470    36.4280 ns         1 0Z9      -0.491900
     20 CA1        -12.6580    21.3310    37.6270 c3         1 0Z9       0.038700
     21 CB1        -13.9230    21.7520    38.4140 c3         1 0Z9      -0.107100
     22 C1         -11.6610    20.5280    38.5170 c          1 0Z9       0.591100
     23 O1         -11.4140    19.3400    38.3320 o          1 0Z9      -0.548100
     24 N2         -11.0480    21.2620    39.5300 ns         1 0Z9      -0.382400
     25 OH         -10.3010    20.6030    40.5820 oh         1 0Z9      -0.428100
     26 H19        -13.2500    23.5400    30.3900 h1         1 0Z9       0.057200
     27 H20        -12.8780    22.0510    29.4960 h1         1 0Z9       0.057200
     28 H21        -17.4250    23.9150    26.2510 ha         1 0Z9       0.112000
     29 H22        -16.1480    21.7830    26.0490 ha         1 0Z9       0.113500
     30 H23        -14.4370    21.1860    27.7530 ha         1 0Z9       0.115000
     31 H24        -15.2790    24.8620    29.8740 ha         1 0Z9       0.115000
     32 H25        -16.9880    25.4510    28.1660 ha         1 0Z9       0.113500
     33 H          -15.3000    20.6260    32.6360 hn         1 0Z9       0.333500
     34 HA         -14.7150    19.4630    34.5230 h1         1 0Z9       0.065700
     35 HB2        -11.7820    19.5480    33.6950 hc         1 0Z9       0.056700
     36 HB3        -12.5330    18.4340    34.8180 hc         1 0Z9       0.056700
     37 HG         -13.0870    18.5400    31.8090 hc         1 0Z9       0.060700
     38 HD11       -11.8440    16.4070    31.6870 hc         1 0Z9       0.032867
     39 HD12       -10.8130    17.7020    32.3220 hc         1 0Z9       0.032867
     40 HD13       -11.4930    16.4860    33.4270 hc         1 0Z9       0.032867
     41 HD21       -14.3230    16.3870    32.1460 hc         1 0Z9       0.032867
     42 HD22       -14.1410    16.5570    33.9050 hc         1 0Z9       0.032867
     43 HD23       -15.1120    17.7290    32.9850 hc         1 0Z9       0.032867
     44 HN1        -12.9000    19.5410    36.4620 hn         1 0Z9       0.326500
     45 HA1        -12.1310    22.2370    37.2990 h1         1 0Z9       0.067700
     46 HB1        -13.6600    22.3690    39.2810 hc         1 0Z9       0.052367
     47 HB21       -14.6000    22.3370    37.7810 hc         1 0Z9       0.052367
     48 HB31       -14.4660    20.8700    38.7730 hc         1 0Z9       0.052367
     49 HN2        -11.3770    22.2050    39.7350 hn         1 0Z9       0.332500
     50 HO          -9.4480    21.0980    40.6090 ho         1 0Z9       0.450000
@<TRIPOS>BOND
     1     1     3 1   
     2     1    10 1   
     3     2    10 2   
     4     3     4 1   
     5     3    26 1   
     6     3    27 1   
     7     4     7 ar  
     8     4     8 ar  
     9     5     6 ar  
    10     5     9 ar  
    11     5    28 1   
    12     6     7 ar  
    13     6    29 1   
    14     7    30 1   
    15     8     9 ar  
    16     8    31 1   
    17     9    32 1   
    18    10    11 1   
    19    11    12 1   
    20    11    33 1   
    21    12    13 1   
    22    12    15 1   
    23    12    34 1   
    24    13    14 2   
    25    13    19 1   
    26    15    16 1   
    27    15    35 1   
    28    15    36 1   
    29    16    17 1   
    30    16    18 1   
    31    16    37 1   
    32    17    38 1   
    33    17    39 1   
    34    17    40 1   
    35    18    41 1   
    36    18    42 1   
    37    18    43 1   
    38    19    20 1   
    39    19    44 1   
    40    20    21 1   
    41    20    22 1   
    42    20    45 1   
    43    21    46 1   
    44    21    47 1   
    45    21    48 1   
    46    22    23 2   
    47    22    24 1   
    48    24    25 1   
    49    24    49 1   
    50    25    50 1   
@<TRIPOS>SUBSTRUCTURE
     1 0Z9         1 TEMP              0 ****  ****    0 ROOT
