@<TRIPOS>MOLECULE
0ZB
   51    51     1     0     0
SMALL
No Charge or Current Charge


@<TRIPOS>ATOM
      1 N            4.5230    -1.4350     1.0420 ns         1 0ZB      -0.390400
      2 OH           5.2170    -2.7020     1.1160 oh         1 0ZB      -0.406100
      3 C1           4.0910    -0.9230    -0.1780 c          1 0ZB       0.614100
      4 O1           4.4630    -1.3900    -1.2470 o          1 0ZB      -0.554100
      5 CA           3.1670     0.2910    -0.0770 c3         1 0ZB      -0.224700
      6 CB           3.7200     1.5440    -0.8190 c3         1 0ZB      -0.054400
      7 CG           5.1200     2.0370    -0.3560 c3         1 0ZB      -0.066700
      8 CD1          5.6180     3.1940    -1.2520 c3         1 0ZB      -0.086100
      9 CD2          5.1540     2.4500     1.1350 c3         1 0ZB      -0.086100
     10 C            1.7860    -0.1100    -0.5900 c          1 0ZB       0.611100
     11 O            1.5690    -0.4130    -1.7550 o          1 0ZB      -0.608100
     12 N1           0.7810    -0.0630     0.3520 ns         1 0ZB      -0.457900
     13 CA1         -0.6370    -0.4050     0.1080 c3         1 0ZB       0.058700
     14 C2          -1.5640     0.6840     0.7330 c          1 0ZB       0.593100
     15 O2          -1.1600     1.5560     1.4940 o          1 0ZB      -0.632100
     16 CB1         -0.9700    -1.8300     0.6350 c3         1 0ZB      -0.235400
     17 CG1         -0.1520    -2.9000    -0.0960 c          1 0ZB       0.715000
     18 OD1         -0.6080    -3.3550    -1.1330 o          1 0ZB      -0.721500
     19 OD2          0.9110    -3.2510     0.3940 o          1 0ZB      -0.721500
     20 N2          -2.8890     0.6080     0.3680 ns         1 0ZB      -0.504900
     21 C3          -3.9270     1.5220     0.8380 c3         1 0ZB       0.143300
     22 C11         -5.2860     1.1410     0.2720 ca         1 0ZB      -0.102300
     23 C21         -6.1000     0.2110     0.9490 ca         1 0ZB      -0.096500
     24 C31         -7.3550    -0.1450     0.4230 ca         1 0ZB      -0.116000
     25 C4          -7.8010     0.4250    -0.7810 ca         1 0ZB      -0.117000
     26 C5          -6.9910     1.3500    -1.4610 ca         1 0ZB      -0.116000
     27 C6          -5.7370     1.7070    -0.9360 ca         1 0ZB      -0.096500
     28 HN           4.0890    -1.1100     1.9050 hn         1 0ZB       0.333500
     29 HOH          6.0090    -2.4990     1.6660 ho         1 0ZB       0.425000
     30 HA           3.0540     0.5420     0.9840 hc         1 0ZB       0.058700
     31 HB1          3.7660     1.3210    -1.8940 hc         1 0ZB       0.064700
     32 HB2          3.0000     2.3660    -0.7100 hc         1 0ZB       0.064700
     33 HG           5.8320     1.2110    -0.4840 hc         1 0ZB       0.050700
     34 HD11         4.9550     4.0640    -1.1710 hc         1 0ZB       0.028867
     35 HD12         6.6290     3.5040    -0.9610 hc         1 0ZB       0.028867
     36 HD13         5.6510     2.8850    -2.3040 hc         1 0ZB       0.028867
     37 HD21         4.4080     3.2270     1.3420 hc         1 0ZB       0.028867
     38 HD22         4.9540     1.5940     1.7900 hc         1 0ZB       0.028867
     39 HD23         6.1410     2.8440     1.4050 hc         1 0ZB       0.028867
     40 H            1.0360     0.2620     1.2770 hn         1 0ZB       0.326500
     41 HA1         -0.8310    -0.3800    -0.9730 h1         1 0ZB       0.096700
     42 HB21        -0.7300    -1.8260     1.7060 hc         1 0ZB       0.036700
     43 HB3         -2.0350    -1.9840     0.4260 hc         1 0ZB       0.036700
     44 HN2         -3.1560    -0.1410    -0.2590 hn         1 0ZB       0.323500
     45 H1          -3.9590     1.4930     1.9350 h1         1 0ZB       0.057200
     46 H2A         -3.6680     2.5450     0.5330 h1         1 0ZB       0.057200
     47 H2          -5.7610    -0.2360     1.8810 ha         1 0ZB       0.118500
     48 H3          -7.9800    -0.8630     0.9500 ha         1 0ZB       0.107000
     49 H4          -8.7710     0.1490    -1.1880 ha         1 0ZB       0.103000
     50 H5          -7.3350     1.7900    -2.3940 ha         1 0ZB       0.107000
     51 H6          -5.1140     2.4220    -1.4700 ha         1 0ZB       0.118500
@<TRIPOS>BOND
     1     1     2 1   
     2     1     3 1   
     3     1    28 1   
     4     2    29 1   
     5     3     4 2   
     6     3     5 1   
     7     5     6 1   
     8     5    10 1   
     9     5    30 1   
    10     6     7 1   
    11     6    31 1   
    12     6    32 1   
    13     7     8 1   
    14     7     9 1   
    15     7    33 1   
    16     8    34 1   
    17     8    35 1   
    18     8    36 1   
    19     9    37 1   
    20     9    38 1   
    21     9    39 1   
    22    10    11 2   
    23    10    12 1   
    24    12    13 1   
    25    12    40 1   
    26    13    14 1   
    27    13    16 1   
    28    13    41 1   
    29    14    15 2   
    30    14    20 1   
    31    16    17 1   
    32    16    42 1   
    33    16    43 1   
    34    17    18 1   
    35    17    19 1   
    36    20    21 1   
    37    20    44 1   
    38    21    22 1   
    39    21    45 1   
    40    21    46 1   
    41    22    23 ar  
    42    22    27 ar  
    43    23    24 ar  
    44    23    47 1   
    45    24    25 ar  
    46    24    48 1   
    47    25    26 ar  
    48    25    49 1   
    49    26    27 ar  
    50    26    50 1   
    51    27    51 1   
@<TRIPOS>SUBSTRUCTURE
     1 0ZB         1 TEMP              0 ****  ****    0 ROOT
