@<TRIPOS>MOLECULE
0ZB
   51    51     1     0     0
SMALL
bcc


@<TRIPOS>ATOM
      1 N            4.1730    -1.4050     0.5220 ns         1 0ZB      -0.457400
      2 OH           4.7120    -2.6140     0.2070 oh         1 0ZB      -0.367100
      3 C1           3.6560    -0.6270    -0.4450 c          1 0ZB       0.681100
      4 O1           3.7670    -0.8550    -1.6340 o          1 0ZB      -0.554100
      5 CA           2.9190     0.5950     0.0860 c3         1 0ZB      -0.224700
      6 CB           3.5390     1.8820    -0.4510 c3         1 0ZB      -0.054400
      7 CG           5.0180     2.0780    -0.1090 c3         1 0ZB      -0.066700
      8 CD1          5.5070     3.3880    -0.7190 c3         1 0ZB      -0.086100
      9 CD2          5.2820     2.0620     1.3950 c3         1 0ZB      -0.086100
     10 C            1.4630     0.4430    -0.3490 c          1 0ZB       0.678100
     11 O            1.0090     0.9790    -1.3460 o          1 0ZB      -0.608100
     12 N1           0.7320    -0.3690     0.4270 ns         1 0ZB      -0.524900
     13 CA1         -0.6480    -0.6590     0.1310 c3         1 0ZB       0.058700
     14 C2          -1.4870     0.6140     0.2070 c          1 0ZB       0.660100
     15 O2          -1.2830     1.4720     1.0500 o          1 0ZB      -0.632100
     16 CB1         -1.1820    -1.6780     1.1300 c3         1 0ZB      -0.235400
     17 CG1         -0.5240    -3.0720     0.9970 c          1 0ZB       0.925600
     18 OD1         -0.2540    -3.4520    -0.1570 o          1 0ZB      -0.826800
     19 OD2         -0.3550    -3.7040     2.0560 o          1 0ZB      -0.826800
     20 N2          -2.4910     0.6570    -0.6850 ns         1 0ZB      -0.571900
     21 C3          -3.5110     1.6770    -0.7230 c3         1 0ZB       0.143300
     22 C11         -4.8910     1.1180    -0.4820 ca         1 0ZB      -0.102300
     23 C21         -5.1460     0.3080     0.6230 ca         1 0ZB      -0.114500
     24 C31         -6.4180    -0.1940     0.8520 ca         1 0ZB      -0.134000
     25 C4          -7.4560     0.1070    -0.0230 ca         1 0ZB      -0.135000
     26 C5          -7.2110     0.9130    -1.1250 ca         1 0ZB      -0.134000
     27 C6          -5.9340     1.4130    -1.3530 ca         1 0ZB      -0.114500
     28 HN           3.9570    -1.2770     1.5000 hn         1 0ZB       0.333500
     29 HOH          5.6690    -2.4830     0.1780 ho         1 0ZB       0.386000
     30 HA           2.9480     0.6070     1.1790 hc         1 0ZB       0.058700
     31 HB1          3.4160     1.9110    -1.5350 hc         1 0ZB       0.064700
     32 HB2          2.9720     2.7270    -0.0500 hc         1 0ZB       0.064700
     33 HG           5.5950     1.2650    -0.5660 hc         1 0ZB       0.050700
     34 HD11         4.9870     4.2410    -0.2770 hc         1 0ZB       0.028867
     35 HD12         6.5760     3.5270    -0.5480 hc         1 0ZB       0.028867
     36 HD13         5.3380     3.4170    -1.7970 hc         1 0ZB       0.028867
     37 HD21         4.6680     2.8070     1.9060 hc         1 0ZB       0.028867
     38 HD22         5.0740     1.0920     1.8460 hc         1 0ZB       0.028867
     39 HD23         6.3270     2.2940     1.6060 hc         1 0ZB       0.028867
     40 H            1.1240    -0.7200     1.2860 hn         1 0ZB       0.326500
     41 HA1         -0.7160    -1.0920    -0.8710 h1         1 0ZB       0.096700
     42 HB21        -1.0770    -1.2930     2.1470 hc         1 0ZB       0.036700
     43 HB3         -2.2570    -1.8020     0.9560 hc         1 0ZB       0.036700
     44 HN2         -2.5540    -0.0780    -1.3710 hn         1 0ZB       0.323500
     45 H1          -3.2670     2.4200     0.0370 h1         1 0ZB       0.057200
     46 H2A         -3.4840     2.1900    -1.6870 h1         1 0ZB       0.057200
     47 H2          -4.3450     0.0670     1.3130 ha         1 0ZB       0.136500
     48 H3          -6.6020    -0.8190     1.7160 ha         1 0ZB       0.125000
     49 H4          -8.4480    -0.2870     0.1540 ha         1 0ZB       0.121000
     50 H5          -8.0120     1.1490    -1.8140 ha         1 0ZB       0.125000
     51 H6          -5.7480     2.0370    -2.2190 ha         1 0ZB       0.136500
@<TRIPOS>BOND
     1     1     2 1   
     2     1     3 1   
     3     1    28 1   
     4     2    29 1   
     5     3     4 2   
     6     3     5 1   
     7     5     6 1   
     8     5    10 1   
     9     5    30 1   
    10     6     7 1   
    11     6    31 1   
    12     6    32 1   
    13     7     8 1   
    14     7     9 1   
    15     7    33 1   
    16     8    34 1   
    17     8    35 1   
    18     8    36 1   
    19     9    37 1   
    20     9    38 1   
    21     9    39 1   
    22    10    11 2   
    23    10    12 1   
    24    12    13 1   
    25    12    40 1   
    26    13    14 1   
    27    13    16 1   
    28    13    41 1   
    29    14    15 2   
    30    14    20 1   
    31    16    17 1   
    32    16    42 1   
    33    16    43 1   
    34    17    18 1   
    35    17    19 1   
    36    20    21 1   
    37    20    44 1   
    38    21    22 1   
    39    21    45 1   
    40    21    46 1   
    41    22    23 ar  
    42    22    27 ar  
    43    23    24 ar  
    44    23    47 1   
    45    24    25 ar  
    46    24    48 1   
    47    25    26 ar  
    48    25    49 1   
    49    26    27 ar  
    50    26    50 1   
    51    27    51 1   
@<TRIPOS>SUBSTRUCTURE
     1 0ZB         1 TEMP              0 ****  ****    0 ROOT
