@<TRIPOS>MOLECULE
0ZC
   55    58     1     0     0
SMALL
bcc


@<TRIPOS>ATOM
      1 N            2.6630     0.2530     0.2370 ns         1 0ZC      -0.538900
      2 CA           1.3040     0.4790     0.6690 c3         1 0ZC       0.027700
      3 CB           0.6440     1.6360    -0.1130 c3         1 0ZC      -0.085400
      4 CG           0.6740     1.5770    -1.6440 c3         1 0ZC      -0.052700
      5 CD1         -0.4090     0.6780    -2.2380 c3         1 0ZC      -0.093100
      6 CD2          0.5160     2.9940    -2.1930 c3         1 0ZC      -0.093100
      7 C            0.5740    -0.8600     0.5480 c          1 0ZC       0.662100
      8 O            0.9730    -1.6920    -0.2550 o          1 0ZC      -0.566100
      9 C2           3.6930     1.0060     0.6500 c          1 0ZC       0.604600
     10 O3           3.5890     1.9440     1.4310 o          1 0ZC      -0.625100
     11 C4           5.0130     0.6470     0.1120 cc         1 0ZC       0.181200
     12 O8           5.1390    -0.4040    -0.7290 os         1 0ZC      -0.308800
     13 C5           6.2270     1.2200     0.3200 cd         1 0ZC      -0.209300
     14 C6           7.1580     0.4670    -0.4470 cd         1 0ZC      -0.296300
     15 C7           6.4370    -0.5050    -1.0600 cc         1 0ZC       0.251600
     16 N1          -0.4790    -1.0920     1.3590 n          1 0ZC      -0.409800
     17 CA1         -1.3270    -2.2590     1.0990 c6         1 0ZC      -0.042300
     18 CB1         -2.3170    -1.9230    -0.0170 c6         1 0ZC      -0.021200
     19 CG1         -2.9080    -0.5770     0.2620 cc         1 0ZC      -0.103400
     20 CD21        -4.0180     0.1010    -0.3310 ca         1 0ZC      -0.090800
     21 CE2         -4.1350     1.3500     0.3230 ca         1 0ZC      -0.048200
     22 CE3         -4.9220    -0.2200    -1.3490 ca         1 0ZC      -0.067000
     23 CD11        -2.4110     0.2650     1.2150 cd         1 0ZC      -0.122300
     24 NE1         -3.1450     1.4180     1.2630 na         1 0ZC      -0.175400
     25 CZ2         -5.1210     2.2740    -0.0160 ca         1 0ZC      -0.158000
     26 CZ3         -5.9030     0.6940    -1.6870 ca         1 0ZC      -0.178000
     27 CH2         -6.0000     1.9290    -1.0270 ca         1 0ZC      -0.121000
     28 C9          -1.2080    -0.0380     2.0480 c6         1 0ZC       0.151200
     29 C1          -0.5440    -3.5850     0.9590 c          1 0ZC       0.954600
     30 O2           0.3580    -3.7750     1.7940 o          1 0ZC      -0.817300
     31 O1          -0.9490    -4.3770     0.0900 o          1 0ZC      -0.817300
     32 H            2.8100    -0.5090    -0.4080 hn         1 0ZC       0.358500
     33 HA           1.3390     0.7740     1.7200 h1         1 0ZC       0.074700
     34 HB2         -0.3920     1.7680     0.2120 hc         1 0ZC       0.046200
     35 HB3          1.1690     2.5380     0.2130 hc         1 0ZC       0.046200
     36 HG           1.6520     1.2020    -1.9640 hc         1 0ZC       0.049700
     37 HD11        -0.4180     0.7600    -3.3270 hc         1 0ZC       0.033700
     38 HD12        -0.2660    -0.3720    -1.9970 hc         1 0ZC       0.033700
     39 HD13        -1.3980     0.9680    -1.8730 hc         1 0ZC       0.033700
     40 HD21         1.3020     3.6560    -1.8260 hc         1 0ZC       0.033700
     41 HD22         0.5560     3.0030    -3.2840 hc         1 0ZC       0.033700
     42 HD23        -0.4450     3.4210    -1.8950 hc         1 0ZC       0.033700
     43 H5           6.4310     2.0770     0.9410 ha         1 0ZC       0.169000
     44 H6           8.2200     0.6250    -0.5320 ha         1 0ZC       0.154000
     45 H7           6.7050    -1.3050    -1.7310 h4         1 0ZC       0.052100
     46 HA1         -1.9160    -2.3830     2.0170 h1         1 0ZC       0.036700
     47 HB1         -1.8240    -1.9430    -0.9930 hc         1 0ZC       0.068200
     48 HB21        -3.0940    -2.6890    -0.0500 hc         1 0ZC       0.068200
     49 HE3         -4.8560    -1.1690    -1.8670 ha         1 0ZC       0.137000
     50 HNE         -2.9730     2.1980     1.8750 hn         1 0ZC       0.289700
     51 HZ2         -5.1960     3.2280     0.4900 ha         1 0ZC       0.119000
     52 HZ3         -6.6090     0.4590    -2.4730 ha         1 0ZC       0.118000
     53 HH2         -6.7760     2.6270    -1.3150 ha         1 0ZC       0.114000
     54 H91         -1.4910    -0.3990     3.0410 h1         1 0ZC       0.053700
     55 H92         -0.5930     0.8450     2.2130 h1         1 0ZC       0.053700
@<TRIPOS>BOND
     1     1     2 1   
     2     1     9 1   
     3     1    32 1   
     4     2     3 1   
     5     2     7 1   
     6     2    33 1   
     7     3     4 1   
     8     3    34 1   
     9     3    35 1   
    10     4     5 1   
    11     4     6 1   
    12     4    36 1   
    13     5    37 1   
    14     5    38 1   
    15     5    39 1   
    16     6    40 1   
    17     6    41 1   
    18     6    42 1   
    19     7     8 2   
    20     7    16 1   
    21     9    10 2   
    22     9    11 1   
    23    11    12 1   
    24    11    13 2   
    25    12    15 1   
    26    13    14 1   
    27    13    43 1   
    28    14    15 2   
    29    14    44 1   
    30    15    45 1   
    31    16    17 1   
    32    16    28 1   
    33    17    18 1   
    34    17    29 1   
    35    17    46 1   
    36    18    19 1   
    37    18    47 1   
    38    18    48 1   
    39    19    20 1   
    40    19    23 2   
    41    20    21 ar  
    42    20    22 ar  
    43    21    24 1   
    44    21    25 ar  
    45    22    26 ar  
    46    22    49 1   
    47    23    24 1   
    48    23    28 1   
    49    24    50 1   
    50    25    27 ar  
    51    25    51 1   
    52    26    27 ar  
    53    26    52 1   
    54    27    53 1   
    55    28    54 1   
    56    28    55 1   
    57    29    30 1   
    58    29    31 1   
@<TRIPOS>SUBSTRUCTURE
     1 0ZC         1 TEMP              0 ****  ****    0 ROOT
