@<TRIPOS>MOLECULE
0ZC
   55    58     1     0     0
SMALL
No Charge or Current Charge


@<TRIPOS>ATOM
      1 N            2.6580     0.4400     0.2990 ns         1 0ZC      -0.471900
      2 CA           1.3120     0.8190    -0.1890 c3         1 0ZC       0.027700
      3 CB           1.3780     1.6060    -1.5390 c3         1 0ZC      -0.085400
      4 CG           2.3870     1.1040    -2.6150 c3         1 0ZC      -0.052700
      5 CD1          2.1040    -0.3380    -3.0930 c3         1 0ZC      -0.093100
      6 CD2          2.4270     2.0730    -3.8180 c3         1 0ZC      -0.093100
      7 C            0.3640    -0.4350    -0.2080 c          1 0ZC       0.595100
      8 O            0.8310    -1.5520     0.0000 o          1 0ZC      -0.566100
      9 C2           3.6050     1.3090     0.8000 c          1 0ZC       0.537600
     10 O3           3.3930     2.5100     0.9220 o          1 0ZC      -0.625100
     11 C4           4.8780     0.6350     1.1710 cc         1 0ZC       0.071500
     12 O8           5.0990    -0.7210     1.0270 os         1 0ZC      -0.220000
     13 C5           5.9940     1.2340     1.6930 cd         1 0ZC      -0.126000
     14 C6           6.9500     0.2150     1.8820 cd         1 0ZC      -0.213000
     15 C7           6.3820    -0.9610     1.4700 cc         1 0ZC       0.141900
     16 N1          -1.0290    -0.2800    -0.4590 n          1 0ZC      -0.342800
     17 CA1         -1.9250    -1.5110    -0.6020 c6         1 0ZC      -0.042300
     18 CB1         -3.4540    -1.2350    -0.7460 c6         1 0ZC      -0.021200
     19 CG1         -3.8600    -0.1240     0.1690 cc         1 0ZC      -0.103400
     20 CD21        -5.0280     0.1320     0.9560 ca         1 0ZC      -0.090800
     21 CE2         -4.8460     1.3410     1.5720 ca         1 0ZC      -0.048200
     22 CE3         -6.1900    -0.6300     1.1400 ca         1 0ZC      -0.049000
     23 CD11        -3.0270     0.9590     0.3410 cd         1 0ZC      -0.122300
     24 NE1         -3.6220     1.8910     1.2240 na         1 0ZC      -0.225700
     25 CZ2         -5.8210     1.8800     2.4220 ca         1 0ZC      -0.140000
     26 CZ3         -7.1890    -0.1100     1.9920 ca         1 0ZC      -0.160000
     27 CH2         -7.0050     1.1390     2.6310 ca         1 0ZC      -0.103000
     28 C9          -1.7090     1.0570    -0.3860 c6         1 0ZC       0.151200
     29 C1          -1.5060    -2.5200    -1.7190 c          1 0ZC       0.744000
     30 O2          -1.2720    -3.6710    -1.3700 o          1 0ZC      -0.712000
     31 O1          -1.0560    -2.0570    -2.7590 o          1 0ZC      -0.712000
     32 H            2.9200    -0.5410     0.2670 hn         1 0ZC       0.358500
     33 HA           0.8920     1.4920     0.5670 h1         1 0ZC       0.074700
     34 HB2          0.3820     1.6620    -1.9910 hc         1 0ZC       0.046200
     35 HB3          1.6450     2.6420    -1.2940 hc         1 0ZC       0.046200
     36 HG           3.3920     1.1130    -2.1750 hc         1 0ZC       0.049700
     37 HD11         2.8090    -0.6280    -3.8820 hc         1 0ZC       0.033700
     38 HD12         2.2180    -1.0570    -2.2750 hc         1 0ZC       0.033700
     39 HD13         1.0890    -0.4220    -3.4960 hc         1 0ZC       0.033700
     40 HD21         2.6870     3.0880    -3.4920 hc         1 0ZC       0.033700
     41 HD22         3.1780     1.7540    -4.5500 hc         1 0ZC       0.033700
     42 HD23         1.4530     2.1140    -4.3210 hc         1 0ZC       0.033700
     43 H5           6.1110     2.2910     1.9130 ha         1 0ZC       0.151000
     44 H6           7.9530     0.3320     2.2800 ha         1 0ZC       0.136000
     45 H7           6.7500    -1.9780     1.4390 h4         1 0ZC       0.052100
     46 HA1         -1.8130    -2.0600     0.3440 h1         1 0ZC       0.036700
     47 HB1         -3.6840    -0.9600    -1.7840 hc         1 0ZC       0.068200
     48 HB21        -4.0210    -2.1520    -0.5350 hc         1 0ZC       0.068200
     49 HE3         -6.3180    -1.5890     0.6420 ha         1 0ZC       0.119000
     50 HNE         -3.2420     2.7820     1.5250 hn         1 0ZC       0.340000
     51 HZ2         -5.6720     2.8410     2.9080 ha         1 0ZC       0.101000
     52 HZ3         -8.1040    -0.6740     2.1580 ha         1 0ZC       0.100000
     53 HH2         -7.7800     1.5320     3.2850 ha         1 0ZC       0.096000
     54 H91         -1.0850     1.7990     0.1260 h1         1 0ZC       0.053700
     55 H92         -1.8820     1.4220    -1.4080 h1         1 0ZC       0.053700
@<TRIPOS>BOND
     1     1     2 1   
     2     1     9 1   
     3     1    32 1   
     4     2     3 1   
     5     2     7 1   
     6     2    33 1   
     7     3     4 1   
     8     3    34 1   
     9     3    35 1   
    10     4     5 1   
    11     4     6 1   
    12     4    36 1   
    13     5    37 1   
    14     5    38 1   
    15     5    39 1   
    16     6    40 1   
    17     6    41 1   
    18     6    42 1   
    19     7     8 2   
    20     7    16 1   
    21     9    10 2   
    22     9    11 1   
    23    11    12 1   
    24    11    13 2   
    25    12    15 1   
    26    13    14 1   
    27    13    43 1   
    28    14    15 2   
    29    14    44 1   
    30    15    45 1   
    31    16    17 1   
    32    16    28 1   
    33    17    18 1   
    34    17    29 1   
    35    17    46 1   
    36    18    19 1   
    37    18    47 1   
    38    18    48 1   
    39    19    20 1   
    40    19    23 2   
    41    20    21 ar  
    42    20    22 ar  
    43    21    24 1   
    44    21    25 ar  
    45    22    26 ar  
    46    22    49 1   
    47    23    24 1   
    48    23    28 1   
    49    24    50 1   
    50    25    27 ar  
    51    25    51 1   
    52    26    27 ar  
    53    26    52 1   
    54    27    53 1   
    55    28    54 1   
    56    28    55 1   
    57    29    30 1   
    58    29    31 1   
@<TRIPOS>SUBSTRUCTURE
     1 0ZC         1 TEMP              0 ****  ****    0 ROOT
