@<TRIPOS>MOLECULE
0ZD
  110   114     1     0     0
SMALL
No Charge or Current Charge


@<TRIPOS>ATOM
      1 O62         -9.5400    -3.8350    -0.1590 o          1 0ZD      -0.716500
      2 C60         -8.3440    -3.5760    -0.2470 c          1 0ZD       0.704500
      3 O61         -7.7410    -3.6320    -1.3120 o          1 0ZD      -0.716500
      4 C56         -7.5860    -3.1320     1.0740 c3         1 0ZD       0.087000
      5 C57         -6.8630    -4.3530     1.7570 c3         1 0ZD      -0.044200
      6 C59         -5.8770    -5.1570     0.8650 c3         1 0ZD      -0.079600
      7 C58         -6.2430    -4.0000     3.1330 c3         1 0ZD      -0.079600
      8 N40         -6.8550    -1.7960     1.1060 n3         1 0ZD      -0.734500
      9 S41         -7.8570    -0.4160     0.8810 sy         1 0ZD       1.182600
     10 O43         -8.6680    -0.3110     2.1000 o          1 0ZD      -0.552000
     11 C45         -6.6930     0.9720     0.8980 ca         1 0ZD      -0.268500
     12 C5A         -6.1500     1.4260     2.1180 ca         1 0ZD      -0.005750
     13 C49         -5.2230     2.4850     2.1290 ca         1 0ZD      -0.125500
     14 C48         -4.8090     3.1160     0.9290 cp         1 0ZD      -0.010000
     15 C50         -3.8020     4.2320     0.9430 cp         1 0ZD      -0.023500
     16 C55         -2.8550     4.3780    -0.1040 ca         1 0ZD      -0.098000
     17 C54         -1.9080     5.4200    -0.0900 ca         1 0ZD      -0.117500
     18 C53         -1.8890     6.3410     0.9720 ca         1 0ZD      -0.119000
     19 C52         -2.8150     6.2180     2.0190 ca         1 0ZD      -0.117500
     20 C51         -3.7600     5.1740     2.0060 ca         1 0ZD      -0.098000
     21 C47         -5.3770     2.6530    -0.2860 ca         1 0ZD      -0.125500
     22 C46         -6.3090     1.5990    -0.3050 ca         1 0ZD      -0.005750
     23 O42         -8.4590    -0.5190    -0.4550 o          1 0ZD      -0.552000
     24 C39         -5.4690    -1.7180     0.5660 c3         1 0ZD       0.204300
     25 C38         -5.3040    -1.7700    -0.9740 c3         1 0ZD       0.075000
     26 N37         -4.0180    -1.2040    -1.4110 ns         1 0ZD      -0.500400
     27 C35         -2.7900    -1.7820    -1.1740 c          1 0ZD       0.610200
     28 O36         -2.7000    -2.8880    -0.6620 o          1 0ZD      -0.593600
     29 C33         -1.5730    -0.9700    -1.5610 ca         1 0ZD      -0.157100
     30 C32         -1.6690     0.3610    -2.0300 ca         1 0ZD      -0.077000
     31 C31         -0.5100     1.0810    -2.3570 ca         1 0ZD      -0.136000
     32 C30          0.7580     0.4930    -2.2230 ca         1 0ZD      -0.077000
     33 C34         -0.2920    -1.5520    -1.4310 ca         1 0ZD      -0.014000
     34 C29          0.8820    -0.8360    -1.7550 ca         1 0ZD      -0.157100
     35 C27          2.2250    -1.5120    -1.5820 c          1 0ZD       0.610200
     36 O28          2.3240    -2.6860    -1.2510 o          1 0ZD      -0.593600
     37 N26          3.3440    -0.7410    -1.8140 ns         1 0ZD      -0.500400
     38 C25          4.7300    -1.1940    -1.6130 c3         1 0ZD       0.075000
     39 C24          5.0820    -1.4140    -0.1190 c3         1 0ZD       0.204300
     40 N16          6.5170    -1.7170     0.1460 n3         1 0ZD      -0.734500
     41 C17          6.7820    -2.6180     1.3390 c3         1 0ZD       0.087000
     42 C21          6.4300    -2.0250     2.7640 c          1 0ZD       0.704500
     43 O23          7.3230    -1.9320     3.5990 o          1 0ZD      -0.716500
     44 O22          5.2790    -1.6670     2.9900 o          1 0ZD      -0.716500
     45 C18          6.1950    -4.0670     1.1750 c3         1 0ZD      -0.044200
     46 C20          6.5560    -4.7040    -0.1930 c3         1 0ZD      -0.079600
     47 C19          6.6290    -5.0130     2.3230 c3         1 0ZD      -0.079600
     48 S13          7.6410    -0.4340    -0.1110 sy         1 0ZD       1.182600
     49 O14          8.5430    -0.4210     1.0480 o          1 0ZD      -0.552000
     50 O15          8.1600    -0.6040    -1.4740 o          1 0ZD      -0.552000
     51 C10          6.6570     1.0820    -0.0030 ca         1 0ZD      -0.268500
     52 C9           6.1780     1.5270     1.2460 ca         1 0ZD      -0.005750
     53 C8           5.4110     2.7040     1.3310 ca         1 0ZD      -0.125500
     54 C11          6.3890     1.8450    -1.1570 ca         1 0ZD      -0.005750
     55 C12          5.6240     3.0210    -1.0650 ca         1 0ZD      -0.125500
     56 C7           5.1120     3.4750     0.1780 cp         1 0ZD      -0.010000
     57 C1           4.2880     4.7260     0.2670 cp         1 0ZD      -0.023500
     58 C6           4.5430     5.8370    -0.5790 ca         1 0ZD      -0.098000
     59 C5           3.7690     7.0100    -0.4960 ca         1 0ZD      -0.117500
     60 C4           2.7200     7.0970     0.4330 ca         1 0ZD      -0.119000
     61 C3           2.4450     6.0110     1.2790 ca         1 0ZD      -0.117500
     62 C2           3.2220     4.8400     1.1970 ca         1 0ZD      -0.098000
     63 H2          -8.4290    -2.9720     1.7590 h1         1 0ZD       0.062700
     64 H3          -7.6700    -5.0640     1.9820 hc         1 0ZD       0.058200
     65 H4          -5.0320    -4.5530     0.5220 hc         1 0ZD       0.023533
     66 H5          -5.4670    -6.0070     1.4250 hc         1 0ZD       0.023533
     67 H6          -6.3850    -5.5680    -0.0160 hc         1 0ZD       0.023533
     68 H7          -6.9770    -3.4890     3.7680 hc         1 0ZD       0.023533
     69 H8          -5.9200    -4.9110     3.6550 hc         1 0ZD       0.023533
     70 H9          -5.3680    -3.3470     3.0270 hc         1 0ZD       0.023533
     71 H10         -6.4340     0.9520     3.0560 ha         1 0ZD       0.139250
     72 H11         -4.8060     2.8050     3.0810 ha         1 0ZD       0.107750
     73 H12         -2.8440     3.6680    -0.9290 ha         1 0ZD       0.120000
     74 H13         -1.1880     5.5110    -0.9000 ha         1 0ZD       0.105500
     75 H14         -1.1570     7.1480     0.9820 ha         1 0ZD       0.102000
     76 H15         -2.8040     6.9320     2.8410 ha         1 0ZD       0.105500
     77 H16         -4.4750     5.1040     2.8220 ha         1 0ZD       0.120000
     78 H17         -5.1030     3.1250    -1.2250 ha         1 0ZD       0.107750
     79 H18         -6.7250     1.2740    -1.2590 ha         1 0ZD       0.139250
     80 H19         -4.9880    -0.7970     0.9200 h1         1 0ZD       0.050950
     81 H20         -4.8480    -2.5100     0.9990 h1         1 0ZD       0.050950
     82 H21         -5.3670    -2.8120    -1.3120 h1         1 0ZD       0.082200
     83 H22         -6.1110    -1.2070    -1.4590 h1         1 0ZD       0.082200
     84 H23         -4.0170    -0.2950    -1.8540 hn         1 0ZD       0.306000
     85 H24         -2.6310     0.8560    -2.1380 ha         1 0ZD       0.116000
     86 H25         -0.5950     2.1040    -2.7150 ha         1 0ZD       0.110000
     87 H26          1.6300     1.0850    -2.4880 ha         1 0ZD       0.116000
     88 H27         -0.2080    -2.5750    -1.0660 ha         1 0ZD       0.154000
     89 H28          3.1860     0.2210    -2.0850 hn         1 0ZD       0.306000
     90 H29          4.8820    -2.1370    -2.1550 h1         1 0ZD       0.082200
     91 H30          5.4000    -0.4520    -2.0590 h1         1 0ZD       0.082200
     92 H31          4.7510    -0.5450     0.4630 h1         1 0ZD       0.050950
     93 H32          4.4530    -2.2430     0.2230 h1         1 0ZD       0.050950
     94 H33          7.8670    -2.7880     1.3770 h1         1 0ZD       0.062700
     95 H35          5.1020    -4.0070     1.2290 hc         1 0ZD       0.058200
     96 H36          7.6440    -4.7660    -0.3190 hc         1 0ZD       0.023533
     97 H37          6.1450    -5.7190    -0.2690 hc         1 0ZD       0.023533
     98 H38          6.1440    -4.1230    -1.0260 hc         1 0ZD       0.023533
     99 H39          7.7220    -5.0940     2.3730 hc         1 0ZD       0.023533
    100 H40          6.2630    -4.6560     3.2940 hc         1 0ZD       0.023533
    101 H41          6.2190    -6.0200     2.1700 hc         1 0ZD       0.023533
    102 H42          6.3900     0.9600     2.1510 ha         1 0ZD       0.139250
    103 H43          5.0570     3.0280     2.3060 ha         1 0ZD       0.107750
    104 H44          6.7660     1.5330    -2.1310 ha         1 0ZD       0.139250
    105 H45          5.4150     3.5800    -1.9730 ha         1 0ZD       0.107750
    106 H46          5.3580     5.7970    -1.2980 ha         1 0ZD       0.120000
    107 H47          3.9850     7.8510    -1.1520 ha         1 0ZD       0.105500
    108 H48          2.1230     8.0050     0.4980 ha         1 0ZD       0.102000
    109 H49          1.6290     6.0750     1.9960 ha         1 0ZD       0.105500
    110 H50          2.9830     4.0060     1.8530 ha         1 0ZD       0.120000
@<TRIPOS>BOND
     1     1     2 1   
     2     2     3 1   
     3     2     4 1   
     4     4     5 1   
     5     4     8 1   
     6     4    63 1   
     7     5     6 1   
     8     5     7 1   
     9     5    64 1   
    10     6    65 1   
    11     6    66 1   
    12     6    67 1   
    13     7    68 1   
    14     7    69 1   
    15     7    70 1   
    16     8     9 1   
    17     8    24 1   
    18     9    10 2   
    19     9    11 1   
    20     9    23 2   
    21    11    12 ar  
    22    11    22 ar  
    23    12    13 ar  
    24    12    71 1   
    25    13    14 ar  
    26    13    72 1   
    27    14    15 1   
    28    14    21 ar  
    29    15    16 ar  
    30    15    20 ar  
    31    16    17 ar  
    32    16    73 1   
    33    17    18 ar  
    34    17    74 1   
    35    18    19 ar  
    36    18    75 1   
    37    19    20 ar  
    38    19    76 1   
    39    20    77 1   
    40    21    22 ar  
    41    21    78 1   
    42    22    79 1   
    43    24    25 1   
    44    24    80 1   
    45    24    81 1   
    46    25    26 1   
    47    25    82 1   
    48    25    83 1   
    49    26    27 1   
    50    26    84 1   
    51    27    28 2   
    52    27    29 1   
    53    29    30 ar  
    54    29    33 ar  
    55    30    31 ar  
    56    30    85 1   
    57    31    32 ar  
    58    31    86 1   
    59    32    34 ar  
    60    32    87 1   
    61    33    34 ar  
    62    33    88 1   
    63    34    35 1   
    64    35    36 2   
    65    35    37 1   
    66    37    38 1   
    67    37    89 1   
    68    38    39 1   
    69    38    90 1   
    70    38    91 1   
    71    39    40 1   
    72    39    92 1   
    73    39    93 1   
    74    40    41 1   
    75    40    48 1   
    76    41    42 1   
    77    41    45 1   
    78    41    94 1   
    79    42    43 1   
    80    42    44 1   
    81    45    46 1   
    82    45    47 1   
    83    45    95 1   
    84    46    96 1   
    85    46    97 1   
    86    46    98 1   
    87    47    99 1   
    88    47   100 1   
    89    47   101 1   
    90    48    49 2   
    91    48    50 2   
    92    48    51 1   
    93    51    52 ar  
    94    51    54 ar  
    95    52    53 ar  
    96    52   102 1   
    97    53    56 ar  
    98    53   103 1   
    99    54    55 ar  
   100    54   104 1   
   101    55    56 ar  
   102    55   105 1   
   103    56    57 1   
   104    57    58 ar  
   105    57    62 ar  
   106    58    59 ar  
   107    58   106 1   
   108    59    60 ar  
   109    59   107 1   
   110    60    61 ar  
   111    60   108 1   
   112    61    62 ar  
   113    61   109 1   
   114    62   110 1   
@<TRIPOS>SUBSTRUCTURE
     1 0ZD         1 TEMP              0 ****  ****    0 ROOT
