@<TRIPOS>MOLECULE
0ZD
  110   114     1     0     0
SMALL
abcg2


@<TRIPOS>ATOM
      1 O62         -8.6710    -5.4280     0.0960 o          1 0ZD      -0.716500
      2 C60         -8.1570    -4.3990    -0.3870 c          1 0ZD       0.704500
      3 O61         -7.5500    -4.2960    -1.4660 o          1 0ZD      -0.716500
      4 C56         -8.3800    -3.0940     0.4200 c3         1 0ZD       0.087000
      5 C57         -8.3250    -3.2690     1.9490 c3         1 0ZD      -0.044200
      6 C59         -7.0820    -3.9430     2.5320 c3         1 0ZD      -0.079600
      7 C58         -8.6580    -1.9730     2.6800 c3         1 0ZD      -0.079600
      8 N40         -7.6040    -1.9550    -0.0820 n3         1 0ZD      -0.734500
      9 S41         -8.0600    -1.2540    -1.4970 sy         1 0ZD       1.182600
     10 O43         -9.4020    -1.7130    -1.8270 o          1 0ZD      -0.552000
     11 C45         -8.1870     0.4600    -1.0380 ca         1 0ZD      -0.268500
     12 C5A         -9.1670     0.8350    -0.1270 ca         1 0ZD      -0.005750
     13 C49         -9.3000     2.1650     0.2210 ca         1 0ZD      -0.125500
     14 C48         -8.4640     3.1410    -0.3310 cp         1 0ZD      -0.010000
     15 C50         -8.6180     4.5610     0.0410 cp         1 0ZD      -0.023500
     16 C55         -7.5040     5.3920     0.1700 ca         1 0ZD      -0.098000
     17 C54         -7.6520     6.7260     0.5220 ca         1 0ZD      -0.117500
     18 C53         -8.9170     7.2530     0.7470 ca         1 0ZD      -0.119000
     19 C52        -10.0330     6.4360     0.6180 ca         1 0ZD      -0.117500
     20 C51         -9.8850     5.1020     0.2700 ca         1 0ZD      -0.098000
     21 C47         -7.4870     2.7400    -1.2400 ca         1 0ZD      -0.125500
     22 C46         -7.3460     1.4070    -1.5980 ca         1 0ZD      -0.005750
     23 O42         -7.0210    -1.3260    -2.5150 o          1 0ZD      -0.552000
     24 C39         -6.2220    -1.7150     0.2960 c3         1 0ZD       0.204300
     25 C38         -5.2050    -2.7390    -0.2060 c3         1 0ZD       0.075000
     26 N37         -3.8810    -2.3440     0.2250 ns         1 0ZD      -0.500400
     27 C35         -2.8320    -2.2020    -0.6010 c          1 0ZD       0.610200
     28 O36         -2.8720    -2.4340    -1.8010 o          1 0ZD      -0.593600
     29 C33         -1.5640    -1.7340     0.0430 ca         1 0ZD      -0.157100
     30 C32         -1.5570    -0.8310     1.1040 ca         1 0ZD      -0.077000
     31 C31         -0.3530    -0.3920     1.6350 ca         1 0ZD      -0.136000
     32 C30          0.8470    -0.8490     1.1150 ca         1 0ZD      -0.077000
     33 C34         -0.3580    -2.1870    -0.4770 ca         1 0ZD      -0.014000
     34 C29          0.8500    -1.7520     0.0530 ca         1 0ZD      -0.157100
     35 C27          2.1160    -2.3180    -0.5100 c          1 0ZD       0.610200
     36 O28          2.1520    -3.4580    -0.9510 o          1 0ZD      -0.593600
     37 N26          3.1810    -1.5010    -0.4860 ns         1 0ZD      -0.500400
     38 C25          4.4920    -1.9000    -0.9480 c3         1 0ZD       0.075000
     39 C24          5.5500    -1.1020    -0.1970 c3         1 0ZD       0.204300
     40 N16          6.9090    -1.4960    -0.5670 n3         1 0ZD      -0.734500
     41 C17          7.7750    -2.1530     0.4320 c3         1 0ZD       0.087000
     42 C21          8.1180    -1.2550     1.6480 c          1 0ZD       0.704500
     43 O23          9.3200    -1.2200     1.9680 o          1 0ZD      -0.716500
     44 O22          7.1750    -0.6780     2.2220 o          1 0ZD      -0.716500
     45 C18          7.1480    -3.4930     0.8540 c3         1 0ZD      -0.044200
     46 C20          7.0960    -4.4640    -0.3210 c3         1 0ZD      -0.079600
     47 C19          7.9180    -4.1300     2.0090 c3         1 0ZD      -0.079600
     48 S13          7.6190    -0.6460    -1.7790 sy         1 0ZD       1.182600
     49 O14          8.8190    -1.3620    -2.1860 o          1 0ZD      -0.552000
     50 O15          6.5910    -0.3650    -2.7720 o          1 0ZD      -0.552000
     51 C10          8.1290     0.9130    -1.1060 ca         1 0ZD      -0.268500
     52 C9           9.3480     1.0120    -0.4490 ca         1 0ZD      -0.005750
     53 C8           9.7290     2.2260     0.0940 ca         1 0ZD      -0.125500
     54 C11          7.3000     2.0210    -1.2300 ca         1 0ZD      -0.005750
     55 C12          7.6930     3.2290    -0.6800 ca         1 0ZD      -0.125500
     56 C7           8.9120     3.3530    -0.0110 cp         1 0ZD      -0.010000
     57 C1           9.3300     4.6460     0.5650 cp         1 0ZD      -0.023500
     58 C6           9.0300     5.8450    -0.0830 ca         1 0ZD      -0.098000
     59 C5           9.4250     7.0600     0.4580 ca         1 0ZD      -0.117500
     60 C4          10.1250     7.0970     1.6570 ca         1 0ZD      -0.119000
     61 C3          10.4280     5.9090     2.3110 ca         1 0ZD      -0.117500
     62 C2          10.0350     4.6950     1.7690 ca         1 0ZD      -0.098000
     63 H2          -9.4260    -2.8320     0.2350 h1         1 0ZD       0.062700
     64 H3          -9.1460    -3.9640     2.1390 hc         1 0ZD       0.058200
     65 H4          -6.2050    -3.2980     2.5730 hc         1 0ZD       0.023533
     66 H5          -7.2880    -4.2510     3.5590 hc         1 0ZD       0.023533
     67 H6          -6.8150    -4.8420     1.9780 hc         1 0ZD       0.023533
     68 H7          -9.5940    -1.5390     2.3210 hc         1 0ZD       0.023533
     69 H8          -8.7730    -2.1570     3.7500 hc         1 0ZD       0.023533
     70 H9          -7.8810    -1.2160     2.5630 hc         1 0ZD       0.023533
     71 H10         -9.8200     0.0990     0.3250 ha         1 0ZD       0.139250
     72 H11        -10.0550     2.4430     0.9450 ha         1 0ZD       0.107750
     73 H12         -6.5100     4.9930     0.0150 ha         1 0ZD       0.120000
     74 H13         -6.7760     7.3520     0.6270 ha         1 0ZD       0.105500
     75 H14         -9.0330     8.2940     1.0190 ha         1 0ZD       0.102000
     76 H15        -11.0240     6.8390     0.7840 ha         1 0ZD       0.105500
     77 H16        -10.7660     4.4830     0.1540 ha         1 0ZD       0.120000
     78 H17         -6.8370     3.4740    -1.7000 ha         1 0ZD       0.107750
     79 H18         -6.5860     1.1230    -2.3130 ha         1 0ZD       0.139250
     80 H19         -5.9210    -0.7250    -0.0560 h1         1 0ZD       0.050950
     81 H20         -6.1790    -1.6450     1.3830 h1         1 0ZD       0.050950
     82 H21         -5.4320    -3.7360     0.1720 h1         1 0ZD       0.082200
     83 H22         -5.2240    -2.7900    -1.2890 h1         1 0ZD       0.082200
     84 H23         -3.7230    -2.2740     1.2180 hn         1 0ZD       0.306000
     85 H24         -2.4840    -0.4470     1.5090 ha         1 0ZD       0.116000
     86 H25         -0.3520     0.3090     2.4580 ha         1 0ZD       0.110000
     87 H26          1.7760    -0.5140     1.5600 ha         1 0ZD       0.116000
     88 H27         -0.3600    -2.8880    -1.3010 ha         1 0ZD       0.154000
     89 H28          3.0340    -0.5220    -0.2930 hn         1 0ZD       0.306000
     90 H29          4.6180    -2.9630    -0.7470 h1         1 0ZD       0.082200
     91 H30          4.5900    -1.7570    -2.0260 h1         1 0ZD       0.082200
     92 H31          5.3950    -0.0290    -0.3470 h1         1 0ZD       0.050950
     93 H32          5.4490    -1.2540     0.8740 h1         1 0ZD       0.050950
     94 H33          8.7090    -2.3970    -0.0750 h1         1 0ZD       0.062700
     95 H35          6.1270    -3.3110     1.2070 hc         1 0ZD       0.058200
     96 H36          8.1050    -4.7420    -0.6350 hc         1 0ZD       0.023533
     97 H37          6.5740    -5.3800    -0.0410 hc         1 0ZD       0.023533
     98 H38          6.5880    -4.0450    -1.1890 hc         1 0ZD       0.023533
     99 H39          8.9670    -4.2850     1.7480 hc         1 0ZD       0.023533
    100 H40          7.8830    -3.5290     2.9170 hc         1 0ZD       0.023533
    101 H41          7.4880    -5.1040     2.2450 hc         1 0ZD       0.023533
    102 H42         10.0070     0.1600    -0.3600 ha         1 0ZD       0.139250
    103 H43         10.6920     2.2980     0.5840 ha         1 0ZD       0.107750
    104 H44          6.3570     1.9570    -1.7540 ha         1 0ZD       0.139250
    105 H45          7.0330     4.0820    -0.7660 ha         1 0ZD       0.107750
    106 H46          8.5010     5.8330    -1.0280 ha         1 0ZD       0.120000
    107 H47          9.1930     7.9790    -0.0630 ha         1 0ZD       0.105500
    108 H48         10.4290     8.0450     2.0800 ha         1 0ZD       0.102000
    109 H49         10.9680     5.9280     3.2490 ha         1 0ZD       0.105500
    110 H50         10.2600     3.7780     2.3000 ha         1 0ZD       0.120000
@<TRIPOS>BOND
     1     1     2 1   
     2     2     3 1   
     3     2     4 1   
     4     4     5 1   
     5     4     8 1   
     6     4    63 1   
     7     5     6 1   
     8     5     7 1   
     9     5    64 1   
    10     6    65 1   
    11     6    66 1   
    12     6    67 1   
    13     7    68 1   
    14     7    69 1   
    15     7    70 1   
    16     8     9 1   
    17     8    24 1   
    18     9    10 2   
    19     9    11 1   
    20     9    23 2   
    21    11    12 ar  
    22    11    22 ar  
    23    12    13 ar  
    24    12    71 1   
    25    13    14 ar  
    26    13    72 1   
    27    14    15 1   
    28    14    21 ar  
    29    15    16 ar  
    30    15    20 ar  
    31    16    17 ar  
    32    16    73 1   
    33    17    18 ar  
    34    17    74 1   
    35    18    19 ar  
    36    18    75 1   
    37    19    20 ar  
    38    19    76 1   
    39    20    77 1   
    40    21    22 ar  
    41    21    78 1   
    42    22    79 1   
    43    24    25 1   
    44    24    80 1   
    45    24    81 1   
    46    25    26 1   
    47    25    82 1   
    48    25    83 1   
    49    26    27 1   
    50    26    84 1   
    51    27    28 2   
    52    27    29 1   
    53    29    30 ar  
    54    29    33 ar  
    55    30    31 ar  
    56    30    85 1   
    57    31    32 ar  
    58    31    86 1   
    59    32    34 ar  
    60    32    87 1   
    61    33    34 ar  
    62    33    88 1   
    63    34    35 1   
    64    35    36 2   
    65    35    37 1   
    66    37    38 1   
    67    37    89 1   
    68    38    39 1   
    69    38    90 1   
    70    38    91 1   
    71    39    40 1   
    72    39    92 1   
    73    39    93 1   
    74    40    41 1   
    75    40    48 1   
    76    41    42 1   
    77    41    45 1   
    78    41    94 1   
    79    42    43 1   
    80    42    44 1   
    81    45    46 1   
    82    45    47 1   
    83    45    95 1   
    84    46    96 1   
    85    46    97 1   
    86    46    98 1   
    87    47    99 1   
    88    47   100 1   
    89    47   101 1   
    90    48    49 2   
    91    48    50 2   
    92    48    51 1   
    93    51    52 ar  
    94    51    54 ar  
    95    52    53 ar  
    96    52   102 1   
    97    53    56 ar  
    98    53   103 1   
    99    54    55 ar  
   100    54   104 1   
   101    55    56 ar  
   102    55   105 1   
   103    56    57 1   
   104    57    58 ar  
   105    57    62 ar  
   106    58    59 ar  
   107    58   106 1   
   108    59    60 ar  
   109    59   107 1   
   110    60    61 ar  
   111    60   108 1   
   112    61    62 ar  
   113    61   109 1   
   114    62   110 1   
@<TRIPOS>SUBSTRUCTURE
     1 0ZD         1 TEMP              0 ****  ****    0 ROOT
