@<TRIPOS>MOLECULE
0ZE
   78    82     1     0     0
SMALL
No Charge or Current Charge


@<TRIPOS>ATOM
      1 C1          15.8870   -12.9170    20.5380 c          1 0ZE       0.602100
      2 O1          15.3870   -13.9780    20.1880 o          1 0ZE      -0.587100
      3 C2          17.2220   -12.7150    21.3260 c5         1 0ZE       0.033700
      4 C3          18.3350   -12.1670    20.3730 c5         1 0ZE      -0.087400
      5 C4          18.9230   -13.4720    19.7720 c5         1 0ZE      -0.092400
      6 C5          19.0780   -14.3260    21.0540 c5         1 0ZE       0.121700
      7 C6          19.2420   -15.8420    20.8530 c6         1 0ZE      -0.084400
      8 C7          19.1810   -16.5290    22.2350 c6         1 0ZE      -0.077400
      9 C8          17.8120   -16.3000    22.9550 c6         1 0ZE       0.122200
     10 C9          17.2820   -14.8040    22.7850 c          1 0ZE       0.597000
     11 O2          16.3570   -14.3760    23.4740 o          1 0ZE      -0.623000
     12 N1          17.8350   -13.9960    21.7680 n          1 0ZE      -0.385800
     13 N2          17.9940   -16.6580    24.4000 n8         1 0ZE      -0.992200
     14 C10         16.6870   -17.2190    22.3550 c3         1 0ZE      -0.066100
     15 C11         16.9270   -18.7280    22.4480 ca         1 0ZE      -0.088300
     16 C12         17.5220   -19.4200    21.3740 ca         1 0ZE      -0.112500
     17 C13         17.7340   -20.8080    21.4520 ca         1 0ZE      -0.104000
     18 C14         17.3420   -21.5160    22.6000 ca         1 0ZE      -0.103000
     19 C15         16.7350   -20.8350    23.6690 ca         1 0ZE      -0.104000
     20 C16         16.5240   -19.4480    23.5910 ca         1 0ZE      -0.112500
     21 N           15.3010   -11.6910    20.2890 ns         1 0ZE      -0.505900
     22 CA          14.0710   -11.4970    19.5020 c3         1 0ZE       0.120700
     23 C           14.3940   -10.9090    18.0920 c3         1 0ZE       0.142000
     24 O           13.1930   -10.8490    17.2880 oh         1 0ZE      -0.658000
     25 CB          13.0550   -10.6410    20.3040 c3         1 0ZE      -0.082400
     26 CG          12.6670   -11.2440    21.6780 c3         1 0ZE      -0.099400
     27 CD          11.6100   -10.4040    22.4180 c3         1 0ZE       0.060600
     28 NE          11.2850   -11.0310    23.7110 nu         1 0ZE      -0.887000
     29 CZ          10.4330   -10.6310    24.6320 cz         1 0ZE       0.934600
     30 NH1          9.7400    -9.5440    24.4660 nv         1 0ZE      -0.613800
     31 NH2         10.2920   -11.3370    25.7130 nv         1 0ZE      -0.613800
     32 C17         15.5050   -11.6770    17.3910 cc         1 0ZE       0.334200
     33 N11         16.7110   -11.1320    17.1630 nd         1 0ZE      -0.533100
     34 C21         17.5190   -12.1230    16.6230 ca         1 0ZE       0.084400
     35 C31         18.8720   -11.9350    16.2980 ca         1 0ZE      -0.060000
     36 C41         19.6160   -13.0150    15.7810 ca         1 0ZE      -0.110000
     37 C51         19.0040   -14.2720    15.5920 ca         1 0ZE      -0.092000
     38 C61         17.6460   -14.4500    15.9170 ca         1 0ZE      -0.070000
     39 C71         16.9300   -13.3570    16.4300 ca         1 0ZE      -0.178000
     40 S1          15.2420   -13.3720    16.9090 ss         1 0ZE       0.079800
     41 H2          17.0340   -12.0360    22.1680 h1         1 0ZE       0.069700
     42 H31         17.9620   -11.4760    19.6100 hc         1 0ZE       0.068700
     43 H32         19.0990   -11.6230    20.9420 hc         1 0ZE       0.068700
     44 H41         18.2340   -13.9340    19.0550 hc         1 0ZE       0.069200
     45 H42         19.8760   -13.3110    19.2560 hc         1 0ZE       0.069200
     46 H5          19.9360   -13.9670    21.6410 h1         1 0ZE       0.054700
     47 H61         18.4600   -16.2300    20.1860 hc         1 0ZE       0.061200
     48 H62         20.2050   -16.0500    20.3680 hc         1 0ZE       0.061200
     49 H71         19.4030   -17.5980    22.1350 hc         1 0ZE       0.064200
     50 H72         19.9910   -16.1220    22.8570 hc         1 0ZE       0.064200
     51 HN21        17.1680   -16.3310    24.9150 hn         1 0ZE       0.407500
     52 HN22        17.9400   -17.6790    24.4800 hn         1 0ZE       0.407500
     53 H101        15.7350   -16.9900    22.8500 hc         1 0ZE       0.064700
     54 H102        16.5160   -16.9470    21.3070 hc         1 0ZE       0.064700
     55 H12         17.8260   -18.8830    20.4780 ha         1 0ZE       0.106500
     56 H13         18.1990   -21.3340    20.6210 ha         1 0ZE       0.116500
     57 H14         17.5050   -22.5900    22.6600 ha         1 0ZE       0.120000
     58 H15         16.4240   -21.3840    24.5550 ha         1 0ZE       0.116500
     59 H16         16.0410   -18.9350    24.4200 ha         1 0ZE       0.106500
     60 H           15.7860   -10.8710    20.6360 hn         1 0ZE       0.314500
     61 HA          13.6050   -12.4790    19.3400 h1         1 0ZE       0.099700
     62 HB2         13.4700    -9.6370    20.4560 hc         1 0ZE       0.057700
     63 HB3         12.1420   -10.5180    19.7100 hc         1 0ZE       0.057700
     64 HG2         12.2800   -12.2600    21.5280 hc         1 0ZE       0.075200
     65 HG3         13.5590   -11.3290    22.3100 hc         1 0ZE       0.075200
     66 HD2         12.0040    -9.3890    22.5740 h1         1 0ZE       0.063200
     67 HD3         10.7090   -10.3290    21.7920 h1         1 0ZE       0.063200
     68 HE          11.7830   -11.8880    23.9240 hn         1 0ZE       0.382000
     69 HH11         9.0830    -9.2150    25.1530 hn         1 0ZE       0.378250
     70 HH12         9.8440    -8.9920    23.6330 hn         1 0ZE       0.378250
     71 HH21         9.6530   -11.0690    26.4430 hn         1 0ZE       0.378250
     72 HH22        10.8160   -12.1820    25.8630 hn         1 0ZE       0.378250
     73 H3          19.3410   -10.9660    16.4510 ha         1 0ZE       0.128000
     74 H4          20.6660   -12.8780    15.5300 ha         1 0ZE       0.122000
     75 H51         19.5810   -15.1040    15.1940 ha         1 0ZE       0.122000
     76 H6          17.1650   -15.4160    15.7760 ha         1 0ZE       0.129000
     77 H37         14.7660    -9.8880    18.2540 h1         1 0ZE       0.060700
     78 H38         13.3940   -10.3010    16.4950 ho         1 0ZE       0.466000
@<TRIPOS>BOND
     1     1     2 2   
     2     1     3 1   
     3     1    21 1   
     4     3     4 1   
     5     3    12 1   
     6     3    41 1   
     7     4     5 1   
     8     4    42 1   
     9     4    43 1   
    10     5     6 1   
    11     5    44 1   
    12     5    45 1   
    13     6     7 1   
    14     6    12 1   
    15     6    46 1   
    16     7     8 1   
    17     7    47 1   
    18     7    48 1   
    19     8     9 1   
    20     8    49 1   
    21     8    50 1   
    22     9    10 1   
    23     9    13 1   
    24     9    14 1   
    25    10    11 2   
    26    10    12 1   
    27    13    51 1   
    28    13    52 1   
    29    14    15 1   
    30    14    53 1   
    31    14    54 1   
    32    15    16 ar  
    33    15    20 ar  
    34    16    17 ar  
    35    16    55 1   
    36    17    18 ar  
    37    17    56 1   
    38    18    19 ar  
    39    18    57 1   
    40    19    20 ar  
    41    19    58 1   
    42    20    59 1   
    43    21    22 1   
    44    21    60 1   
    45    22    23 1   
    46    22    25 1   
    47    22    61 1   
    48    23    24 1   
    49    23    32 1   
    50    23    77 1   
    51    24    78 1   
    52    25    26 1   
    53    25    62 1   
    54    25    63 1   
    55    26    27 1   
    56    26    64 1   
    57    26    65 1   
    58    27    28 1   
    59    27    66 1   
    60    27    67 1   
    61    28    29 2   
    62    28    68 1   
    63    29    30 1   
    64    29    31 1   
    65    30    69 1   
    66    30    70 1   
    67    31    71 1   
    68    31    72 1   
    69    32    33 2   
    70    32    40 1   
    71    33    34 1   
    72    34    35 ar  
    73    34    39 ar  
    74    35    36 ar  
    75    35    73 1   
    76    36    37 ar  
    77    36    74 1   
    78    37    38 ar  
    79    37    75 1   
    80    38    39 ar  
    81    38    76 1   
    82    39    40 1   
@<TRIPOS>SUBSTRUCTURE
     1 0ZE         1 TEMP              0 ****  ****    0 ROOT
