@<TRIPOS>MOLECULE
0ZE
   78    82     1     0     0
SMALL
abcg2


@<TRIPOS>ATOM
      1 C1          16.4120   -12.7230    20.2890 c          1 0ZE       0.602100
      2 O1          16.1450   -13.7650    19.7160 o          1 0ZE      -0.587100
      3 C2          17.7120   -12.5430    21.0720 c5         1 0ZE       0.033700
      4 C3          18.8810   -12.2450    20.1190 c5         1 0ZE      -0.087400
      5 C4          19.4490   -13.6240    19.8000 c5         1 0ZE      -0.092400
      6 C5          19.3450   -14.3320    21.1420 c5         1 0ZE       0.121700
      7 C6          19.3380   -15.8420    21.1540 c6         1 0ZE      -0.084400
      8 C7          18.9520   -16.3040    22.5500 c6         1 0ZE      -0.077400
      9 C8          17.5440   -15.8560    22.9440 c6         1 0ZE       0.122200
     10 C9          17.2610   -14.4030    22.5450 c          1 0ZE       0.597000
     11 O2          16.2560   -13.8370    22.9630 o          1 0ZE      -0.623000
     12 N1          18.0910   -13.8000    21.6840 n          1 0ZE      -0.385800
     13 N2          17.4320   -15.9230    24.3920 n8         1 0ZE      -0.992200
     14 C10         16.4510   -16.6830    22.1950 c3         1 0ZE      -0.066100
     15 C11         16.4610   -18.1470    22.5210 ca         1 0ZE      -0.088300
     16 C12         17.1420   -19.0600    21.7170 ca         1 0ZE      -0.112500
     17 C13         17.1600   -20.4130    22.0270 ca         1 0ZE      -0.104000
     18 C14         16.4930   -20.8790    23.1520 ca         1 0ZE      -0.103000
     19 C15         15.8040   -19.9830    23.9590 ca         1 0ZE      -0.104000
     20 C16         15.7890   -18.6310    23.6430 ca         1 0ZE      -0.112500
     21 N           15.6320   -11.6290    20.2520 ns         1 0ZE      -0.505900
     22 CA          14.3560   -11.5660    19.5830 c3         1 0ZE       0.120700
     23 C           14.4870   -10.8400    18.2270 c3         1 0ZE       0.142000
     24 O           13.2320   -10.8930    17.6080 oh         1 0ZE      -0.658000
     25 CB          13.3190   -10.9050    20.4880 c3         1 0ZE      -0.082400
     26 CG          13.0990   -11.7000    21.7680 c3         1 0ZE      -0.099400
     27 CD          11.9820   -11.1010    22.6050 c3         1 0ZE       0.060600
     28 NE          11.7840   -11.8950    23.8060 nu         1 0ZE      -0.887000
     29 CZ          10.7670   -11.7520    24.6450 cz         1 0ZE       0.934600
     30 NH1          9.8780   -10.7850    24.4610 nv         1 0ZE      -0.613800
     31 NH2         10.6300   -12.5870    25.6690 nv         1 0ZE      -0.613800
     32 C17         15.5170   -11.5180    17.3710 cc         1 0ZE       0.334200
     33 N11         16.7740   -11.2620    17.3640 nd         1 0ZE      -0.533100
     34 C21         17.4490   -12.1190    16.5240 ca         1 0ZE       0.084400
     35 C31         18.8270   -12.1180    16.3040 ca         1 0ZE      -0.060000
     36 C41         19.3620   -13.0470    15.4330 ca         1 0ZE      -0.110000
     37 C51         18.5430   -13.9720    14.7740 ca         1 0ZE      -0.092000
     38 C61         17.1750   -13.9840    14.9760 ca         1 0ZE      -0.070000
     39 C71         16.6390   -13.0530    15.8590 ca         1 0ZE      -0.178000
     40 S1          14.9890   -12.8110    16.3230 ss         1 0ZE       0.079800
     41 H2          17.5930   -11.7520    21.8170 h1         1 0ZE       0.069700
     42 H31         18.5650   -11.6840    19.2410 hc         1 0ZE       0.068700
     43 H32         19.6250   -11.6420    20.6420 hc         1 0ZE       0.068700
     44 H41         18.8400   -14.1340    19.0500 hc         1 0ZE       0.069200
     45 H42         20.4740   -13.5850    19.4360 hc         1 0ZE       0.069200
     46 H5          20.1710   -13.9890    21.7800 h1         1 0ZE       0.054700
     47 H61         18.6480   -16.2270    20.3980 hc         1 0ZE       0.061200
     48 H62         20.3320   -16.2100    20.8950 hc         1 0ZE       0.061200
     49 H71         19.0310   -17.3900    22.6440 hc         1 0ZE       0.064200
     50 H72         19.6580   -15.8820    23.2710 hc         1 0ZE       0.064200
     51 HN21        16.4830   -15.7150    24.6800 hn         1 0ZE       0.407500
     52 HN22        17.6210   -16.8690    24.7030 hn         1 0ZE       0.407500
     53 H101        15.4790   -16.2630    22.4610 hc         1 0ZE       0.064700
     54 H102        16.5630   -16.5460    21.1170 hc         1 0ZE       0.064700
     55 H12         17.6580   -18.7090    20.8300 ha         1 0ZE       0.106500
     56 H13         17.6920   -21.1050    21.3870 ha         1 0ZE       0.116500
     57 H14         16.5020   -21.9340    23.3940 ha         1 0ZE       0.120000
     58 H15         15.2720   -20.3370    24.8330 ha         1 0ZE       0.116500
     59 H16         15.2310   -17.9440    24.2690 ha         1 0ZE       0.106500
     60 H           15.9310   -10.8080    20.7570 hn         1 0ZE       0.314500
     61 HA          14.0400   -12.5930    19.3810 h1         1 0ZE       0.099700
     62 HB2         13.6360    -9.8840    20.7270 hc         1 0ZE       0.057700
     63 HB3         12.3770   -10.8230    19.9450 hc         1 0ZE       0.057700
     64 HG2         12.8440   -12.7340    21.5170 hc         1 0ZE       0.075200
     65 HG3         14.0180   -11.7320    22.3590 hc         1 0ZE       0.075200
     66 HD2         12.2280   -10.0680    22.8680 h1         1 0ZE       0.063200
     67 HD3         11.0570   -11.0860    22.0220 h1         1 0ZE       0.063200
     68 HE          12.4850   -12.5850    24.0310 hn         1 0ZE       0.382000
     69 HH11         9.0850   -10.6890    25.0730 hn         1 0ZE       0.378250
     70 HH12        10.0220   -10.0540    23.7860 hn         1 0ZE       0.378250
     71 HH21         9.8960   -12.4650    26.3460 hn         1 0ZE       0.378250
     72 HH22        11.2260   -13.3910    25.7710 hn         1 0ZE       0.378250
     73 H3          19.4560   -11.4000    16.8130 ha         1 0ZE       0.128000
     74 H4          20.4290   -13.0610    15.2550 ha         1 0ZE       0.122000
     75 H51         18.9860   -14.6890    14.0960 ha         1 0ZE       0.122000
     76 H6          16.5450   -14.7010    14.4660 ha         1 0ZE       0.129000
     77 H37         14.8250    -9.8110    18.4120 h1         1 0ZE       0.060700
     78 H38         13.2120   -10.2700    16.8730 ho         1 0ZE       0.466000
@<TRIPOS>BOND
     1     1     2 2   
     2     1     3 1   
     3     1    21 1   
     4     3     4 1   
     5     3    12 1   
     6     3    41 1   
     7     4     5 1   
     8     4    42 1   
     9     4    43 1   
    10     5     6 1   
    11     5    44 1   
    12     5    45 1   
    13     6     7 1   
    14     6    12 1   
    15     6    46 1   
    16     7     8 1   
    17     7    47 1   
    18     7    48 1   
    19     8     9 1   
    20     8    49 1   
    21     8    50 1   
    22     9    10 1   
    23     9    13 1   
    24     9    14 1   
    25    10    11 2   
    26    10    12 1   
    27    13    51 1   
    28    13    52 1   
    29    14    15 1   
    30    14    53 1   
    31    14    54 1   
    32    15    16 ar  
    33    15    20 ar  
    34    16    17 ar  
    35    16    55 1   
    36    17    18 ar  
    37    17    56 1   
    38    18    19 ar  
    39    18    57 1   
    40    19    20 ar  
    41    19    58 1   
    42    20    59 1   
    43    21    22 1   
    44    21    60 1   
    45    22    23 1   
    46    22    25 1   
    47    22    61 1   
    48    23    24 1   
    49    23    32 1   
    50    23    77 1   
    51    24    78 1   
    52    25    26 1   
    53    25    62 1   
    54    25    63 1   
    55    26    27 1   
    56    26    64 1   
    57    26    65 1   
    58    27    28 1   
    59    27    66 1   
    60    27    67 1   
    61    28    29 2   
    62    28    68 1   
    63    29    30 1   
    64    29    31 1   
    65    30    69 1   
    66    30    70 1   
    67    31    71 1   
    68    31    72 1   
    69    32    33 2   
    70    32    40 1   
    71    33    34 1   
    72    34    35 ar  
    73    34    39 ar  
    74    35    36 ar  
    75    35    73 1   
    76    36    37 ar  
    77    36    74 1   
    78    37    38 ar  
    79    37    75 1   
    80    38    39 ar  
    81    38    76 1   
    82    39    40 1   
@<TRIPOS>SUBSTRUCTURE
     1 0ZE         1 TEMP              0 ****  ****    0 ROOT
