@<TRIPOS>MOLECULE
0ZG
   58    60     1     0     0
SMALL
No Charge or Current Charge


@<TRIPOS>ATOM
      1 S            0.1070     2.4900    -1.0650 sy         1 0ZG       1.151600
      2 O1S         -0.7770     3.3070    -0.2320 o          1 0ZG      -0.530000
      3 O2S          0.5830     2.9350    -2.3750 o          1 0ZG      -0.530000
      4 C1           1.5120     1.9230    -0.0870 ca         1 0ZG      -0.319500
      5 C2           2.7760     1.7490    -0.6890 ca         1 0ZG      -0.005500
      6 C3           3.8630     1.2990     0.0780 ca         1 0ZG      -0.134500
      7 C4           3.7040     1.0180     1.4470 ca         1 0ZG      -0.024300
      8 C5           2.4470     1.2110     2.0490 ca         1 0ZG      -0.134500
      9 C6           1.3560     1.6690     1.2910 ca         1 0ZG      -0.005500
     10 C            4.8830     0.5210     2.2680 c3         1 0ZG      -0.057800
     11 N1           2.0910    -1.4360    -1.2020 n          1 0ZG      -0.395800
     12 C21          3.3080    -1.7820    -2.0010 c6         1 0ZG       0.095000
     13 C31          4.5320    -2.2260    -1.1660 c6         1 0ZG      -0.098900
     14 C41          4.1580    -3.3230    -0.1570 c6         1 0ZG      -0.073400
     15 C51          3.0330    -2.8040     0.7510 c6         1 0ZG      -0.098900
     16 C61          1.7950    -2.3690    -0.0670 c6         1 0ZG       0.095000
     17 N           -0.7480     1.0860    -1.3800 n7         1 0ZG      -0.846300
     18 CA          -0.2050    -0.2600    -0.9990 c3         1 0ZG       0.138500
     19 C7           1.0530    -0.7000    -1.8340 c          1 0ZG       0.576100
     20 O            1.1680    -0.3440    -3.0040 o          1 0ZG      -0.616100
     21 CB          -1.3310    -1.3160    -1.1310 c3         1 0ZG      -0.018100
     22 CG          -2.4340    -1.1350    -0.0920 ca         1 0ZG      -0.090300
     23 CD1         -3.6390    -0.4890    -0.4320 ca         1 0ZG      -0.039000
     24 CD2         -2.2500    -1.6110     1.2190 ca         1 0ZG      -0.092000
     25 CE1         -4.6750    -0.3250     0.5170 ca         1 0ZG      -0.140900
     26 CE2         -3.2570    -1.4360     2.1790 ca         1 0ZG      -0.115000
     27 CZ          -4.4590    -0.7940     1.8360 ca         1 0ZG      -0.087000
     28 CF          -5.9400     0.3880     0.1360 ce         1 0ZG       0.658800
     29 NG1         -6.0590     1.0870    -0.9170 n2         1 0ZG      -0.820100
     30 NG2         -7.0410     0.1890     0.8940 nv         1 0ZG      -1.079200
     31 H2           2.9200     1.9490    -1.7500 ha         1 0ZG       0.134500
     32 H3           4.8320     1.1640    -0.3970 ha         1 0ZG       0.116500
     33 H5           2.3130     1.0060     3.1090 ha         1 0ZG       0.116500
     34 H6           0.3890     1.8100     1.7730 ha         1 0ZG       0.134500
     35 H1           5.4700     1.3610     2.6560 hc         1 0ZG       0.048033
     36 H2A          4.5510    -0.0800     3.1220 hc         1 0ZG       0.048033
     37 H3A          5.5510    -0.1060     1.6650 hc         1 0ZG       0.048033
     38 H21          3.0430    -2.5890    -2.6990 h1         1 0ZG       0.056700
     39 H22          3.6050    -0.9160    -2.6100 h1         1 0ZG       0.056700
     40 H31          5.3260    -2.5840    -1.8350 hc         1 0ZG       0.052450
     41 H32          4.9440    -1.3600    -0.6320 hc         1 0ZG       0.052450
     42 H41          3.8330    -4.2310    -0.6840 hc         1 0ZG       0.043200
     43 H42          5.0350    -3.5980     0.4460 hc         1 0ZG       0.043200
     44 H51          2.7450    -3.5780     1.4750 hc         1 0ZG       0.052450
     45 H52          3.3970    -1.9510     1.3390 hc         1 0ZG       0.052450
     46 H61          1.0820    -1.9210     0.6350 h1         1 0ZG       0.056700
     47 H62          1.3160    -3.2690    -0.4810 h1         1 0ZG       0.056700
     48 H           -0.7870     1.1450    -2.3980 hn         1 0ZG       0.503000
     49 HA           0.0880    -0.2450     0.0550 h1         1 0ZG       0.085700
     50 HB2         -1.7440    -1.2820    -2.1470 hc         1 0ZG       0.058700
     51 HB3         -0.9020    -2.3190    -1.0230 hc         1 0ZG       0.058700
     52 HD1         -3.7690    -0.1150    -1.4460 ha         1 0ZG       0.140000
     53 HD2         -1.3240    -2.1100     1.4970 ha         1 0ZG       0.102000
     54 HE2         -3.1050    -1.7940     3.1940 ha         1 0ZG       0.114000
     55 HZ          -5.2120    -0.6550     2.6080 ha         1 0ZG       0.116000
     56 HG1         -6.9310     1.6220    -0.8440 hn         1 0ZG       0.370400
     57 HG21        -6.9810    -0.5970     1.5320 hn         1 0ZG       0.460000
     58 HG22        -7.9330     0.2940     0.4260 hn         1 0ZG       0.460000
@<TRIPOS>BOND
     1     1     2 2   
     2     1     3 2   
     3     1     4 1   
     4     1    17 1   
     5     4     5 ar  
     6     4     9 ar  
     7     5     6 ar  
     8     5    31 1   
     9     6     7 ar  
    10     6    32 1   
    11     7     8 ar  
    12     7    10 1   
    13     8     9 ar  
    14     8    33 1   
    15     9    34 1   
    16    10    35 1   
    17    10    36 1   
    18    10    37 1   
    19    11    12 1   
    20    11    16 1   
    21    11    19 1   
    22    12    13 1   
    23    12    38 1   
    24    12    39 1   
    25    13    14 1   
    26    13    40 1   
    27    13    41 1   
    28    14    15 1   
    29    14    42 1   
    30    14    43 1   
    31    15    16 1   
    32    15    44 1   
    33    15    45 1   
    34    16    46 1   
    35    16    47 1   
    36    17    18 1   
    37    17    48 1   
    38    18    19 1   
    39    18    21 1   
    40    18    49 1   
    41    19    20 2   
    42    21    22 1   
    43    21    50 1   
    44    21    51 1   
    45    22    23 ar  
    46    22    24 ar  
    47    23    25 ar  
    48    23    52 1   
    49    24    26 ar  
    50    24    53 1   
    51    25    27 ar  
    52    25    28 1   
    53    26    27 ar  
    54    26    54 1   
    55    27    55 1   
    56    28    29 2   
    57    28    30 1   
    58    29    56 1   
    59    30    57 1   
    60    30    58 1   
@<TRIPOS>SUBSTRUCTURE
     1 0ZG         1 TEMP              0 ****  ****    0 ROOT
