@<TRIPOS>MOLECULE
0ZG
   58    60     1     0     0
SMALL
bcc


@<TRIPOS>ATOM
      1 S           -0.1060     1.8430     0.4590 sy         1 0ZG       1.293200
      2 O1S         -0.6170     1.3950     1.7430 o          1 0ZG      -0.600800
      3 O2S         -0.4840     3.1490    -0.0580 o          1 0ZG      -0.600800
      4 C1           1.6590     1.7460     0.5240 ca         1 0ZG      -0.319500
      5 C2           2.4020     2.2480    -0.5390 ca         1 0ZG      -0.023500
      6 C3           3.7780     2.1310    -0.5160 ca         1 0ZG      -0.152500
      7 C4           4.4330     1.5190     0.5550 ca         1 0ZG      -0.024300
      8 C5           3.6670     1.0320     1.6090 ca         1 0ZG      -0.152500
      9 C6           2.2840     1.1380     1.6010 ca         1 0ZG      -0.023500
     10 C            5.9270     1.3990     0.5670 c3         1 0ZG      -0.057800
     11 N1           1.7740    -1.9980    -0.9450 n          1 0ZG      -0.462800
     12 C21          3.0220    -2.3010    -1.6340 c6         1 0ZG       0.095000
     13 C31          4.1960    -2.1970    -0.6680 c6         1 0ZG      -0.098900
     14 C41          3.9850    -3.0830     0.5540 c6         1 0ZG      -0.073400
     15 C51          2.6380    -2.7910     1.2080 c6         1 0ZG      -0.098900
     16 C61          1.5130    -2.8770     0.1850 c6         1 0ZG       0.095000
     17 N           -0.6050     0.7590    -0.6750 n7         1 0ZG      -0.791100
     18 CA          -0.2520    -0.6390    -0.5260 c3         1 0ZG       0.138500
     19 C7           1.0280    -0.9460    -1.3180 c          1 0ZG       0.643100
     20 O            1.2890    -0.2460    -2.2890 o          1 0ZG      -0.616100
     21 CB          -1.4070    -1.5080    -1.0540 c3         1 0ZG      -0.018100
     22 CG          -2.6580    -1.3030    -0.2520 ca         1 0ZG      -0.090300
     23 CD1         -3.6370    -0.4150    -0.6740 ca         1 0ZG      -0.057000
     24 CD2         -2.8350    -1.9750     0.9550 ca         1 0ZG      -0.110000
     25 CE1         -4.7900    -0.1970     0.0770 ca         1 0ZG      -0.140900
     26 CE2         -3.9710    -1.7600     1.7190 ca         1 0ZG      -0.133000
     27 CZ          -4.9480    -0.8750     1.2840 ca         1 0ZG      -0.105000
     28 CF          -5.8080     0.7710    -0.4190 ce         1 0ZG       0.658800
     29 NG1         -5.4430     1.6770    -1.2430 n2         1 0ZG      -0.820100
     30 NG2         -7.0590     0.6290     0.1110 nv         1 0ZG      -0.968800
     31 H2           1.9180     2.7200    -1.3840 ha         1 0ZG       0.152500
     32 H3           4.3540     2.5160    -1.3480 ha         1 0ZG       0.134500
     33 H5           4.1520     0.5540     2.4510 ha         1 0ZG       0.134500
     34 H6           1.7110     0.7480     2.4310 ha         1 0ZG       0.152500
     35 H1           6.3910     2.3540     0.8220 hc         1 0ZG       0.048033
     36 H2A          6.2620     0.6650     1.2970 hc         1 0ZG       0.048033
     37 H3A          6.3090     1.1070    -0.4110 hc         1 0ZG       0.048033
     38 H21          2.9570    -3.3170    -2.0370 h1         1 0ZG       0.056700
     39 H22          3.1430    -1.6210    -2.4720 h1         1 0ZG       0.056700
     40 H31          5.1140    -2.4760    -1.1900 hc         1 0ZG       0.052450
     41 H32          4.3080    -1.1540    -0.3580 hc         1 0ZG       0.052450
     42 H41          4.0180    -4.1340     0.2510 hc         1 0ZG       0.043200
     43 H42          4.7940    -2.9390     1.2730 hc         1 0ZG       0.043200
     44 H51          2.4380    -3.4980     2.0150 hc         1 0ZG       0.052450
     45 H52          2.6450    -1.7900     1.6470 hc         1 0ZG       0.052450
     46 H61          0.5580    -2.6490     0.6490 h1         1 0ZG       0.056700
     47 H62          1.4340    -3.9000    -0.1950 h1         1 0ZG       0.056700
     48 H           -0.4680     1.1050    -1.6210 hn         1 0ZG       0.447800
     49 HA          -0.1260    -0.8370     0.5400 h1         1 0ZG       0.085700
     50 HB2         -1.5780    -1.2560    -2.1040 hc         1 0ZG       0.058700
     51 HB3         -1.1070    -2.5580    -1.0260 hc         1 0ZG       0.058700
     52 HD1         -3.5110     0.1160    -1.6080 ha         1 0ZG       0.158000
     53 HD2         -2.0790    -2.6710     1.3020 ha         1 0ZG       0.120000
     54 HE2         -4.0980    -2.2800     2.6590 ha         1 0ZG       0.132000
     55 HZ          -5.8180    -0.7100     1.9060 ha         1 0ZG       0.134000
     56 HG1         -6.2320     2.2520    -1.5260 hn         1 0ZG       0.370400
     57 HG21        -7.3570    -0.2870     0.4030 hn         1 0ZG       0.404800
     58 HG22        -7.7970     1.1860    -0.2890 hn         1 0ZG       0.404800
@<TRIPOS>BOND
     1     1     2 2   
     2     1     3 2   
     3     1     4 1   
     4     1    17 1   
     5     4     5 ar  
     6     4     9 ar  
     7     5     6 ar  
     8     5    31 1   
     9     6     7 ar  
    10     6    32 1   
    11     7     8 ar  
    12     7    10 1   
    13     8     9 ar  
    14     8    33 1   
    15     9    34 1   
    16    10    35 1   
    17    10    36 1   
    18    10    37 1   
    19    11    12 1   
    20    11    16 1   
    21    11    19 1   
    22    12    13 1   
    23    12    38 1   
    24    12    39 1   
    25    13    14 1   
    26    13    40 1   
    27    13    41 1   
    28    14    15 1   
    29    14    42 1   
    30    14    43 1   
    31    15    16 1   
    32    15    44 1   
    33    15    45 1   
    34    16    46 1   
    35    16    47 1   
    36    17    18 1   
    37    17    48 1   
    38    18    19 1   
    39    18    21 1   
    40    18    49 1   
    41    19    20 2   
    42    21    22 1   
    43    21    50 1   
    44    21    51 1   
    45    22    23 ar  
    46    22    24 ar  
    47    23    25 ar  
    48    23    52 1   
    49    24    26 ar  
    50    24    53 1   
    51    25    27 ar  
    52    25    28 1   
    53    26    27 ar  
    54    26    54 1   
    55    27    55 1   
    56    28    29 2   
    57    28    30 1   
    58    29    56 1   
    59    30    57 1   
    60    30    58 1   
@<TRIPOS>SUBSTRUCTURE
     1 0ZG         1 TEMP              0 ****  ****    0 ROOT
