@<TRIPOS>MOLECULE
0ZI
   74    76     1     0     0
SMALL
No Charge or Current Charge


@<TRIPOS>ATOM
      1 C1           1.3100    -1.7270    -1.0030 ca         1 0ZI      -0.309500
      2 C2           1.6630    -1.2440    -2.2830 ca         1 0ZI       0.011000
      3 C3           2.7280    -0.3550    -2.4460 ca         1 0ZI      -0.159000
      4 C4           3.4700     0.0660    -1.3400 ca         1 0ZI      -0.018000
      5 C4A          3.1510    -0.3910    -0.0430 ca         1 0ZI      -0.071000
      6 C5           3.9170     0.0450     1.0740 ca         1 0ZI       0.293000
      7 C6           3.5670    -0.3830     2.3620 ca         1 0ZI      -0.172000
      8 C7           2.4810    -1.2390     2.5550 ca         1 0ZI      -0.043000
      9 C8           1.7370    -1.6880     1.4570 ca         1 0ZI      -0.155000
     10 C8A          2.0510    -1.2820     0.1380 ca         1 0ZI       0.058000
     11 N            5.0460     0.8930     0.9410 nh         1 0ZI      -0.787400
     12 CM1          5.1570     2.1270     1.7460 c3         1 0ZI       0.169600
     13 CM2          6.2970     0.3710     0.3500 c3         1 0ZI       0.169600
     14 S           -0.0260    -2.9640    -0.9670 sy         1 0ZI       1.148600
     15 O1S         -0.3850    -3.3750    -2.3260 o          1 0ZI      -0.530000
     16 O2S          0.2370    -3.9590     0.0730 o          1 0ZI      -0.530000
     17 N1          -1.3530    -2.1240    -0.4010 n7         1 0ZI      -0.887300
     18 CA          -1.4960    -0.6590    -0.6660 c3         1 0ZI       0.149500
     19 C           -1.0430     0.2250     0.5530 c          1 0ZI       0.578100
     20 O           -0.9670    -0.2840     1.6670 o          1 0ZI      -0.615100
     21 CB          -2.9710    -0.3700    -1.0660 c3         1 0ZI      -0.065400
     22 CG          -4.0200    -0.6490     0.0410 c3         1 0ZI      -0.092400
     23 CD          -5.4590    -0.3480    -0.4170 c3         1 0ZI       0.058600
     24 NE          -6.4070    -0.6270     0.6780 nu         1 0ZI      -0.888000
     25 CZ          -7.7170    -0.4980     0.6900 cz         1 0ZI       0.933600
     26 NH1         -8.3510    -0.0710    -0.3620 nv         1 0ZI      -0.611800
     27 NH2         -8.3730    -0.8030     1.7690 nv         1 0ZI      -0.611800
     28 N11         -0.7620     1.6050     0.3750 n          1 0ZI      -0.385800
     29 C21         -0.2610     2.4520     1.4860 c6         1 0ZI       0.089500
     30 C31          1.2080     2.8590     1.2290 c6         1 0ZI      -0.101900
     31 C41          1.3630     3.5860    -0.1360 c6         1 0ZI      -0.054700
     32 C51          0.7430     2.7220    -1.2720 c6         1 0ZI      -0.101900
     33 C61         -0.7050     2.2990    -0.9390 c6         1 0ZI       0.089500
     34 C9           2.8540     3.9480    -0.4090 c3         1 0ZI      -0.078400
     35 C10          3.1090     4.8010    -1.6690 c3         1 0ZI      -0.088100
     36 H2           1.1200    -1.5630    -3.1720 ha         1 0ZI       0.143000
     37 H3           2.9840     0.0080    -3.4390 ha         1 0ZI       0.126000
     38 H4           4.2880     0.7630    -1.5020 ha         1 0ZI       0.136000
     39 H6           4.1480    -0.0570     3.2200 ha         1 0ZI       0.124000
     40 H7           2.2140    -1.5600     3.5600 ha         1 0ZI       0.122000
     41 H8           0.8970    -2.3320     1.6770 ha         1 0ZI       0.122000
     42 HM11         5.7700     1.9520     2.6400 h1         1 0ZI       0.040700
     43 HM12         5.6170     2.9300     1.1540 h1         1 0ZI       0.040700
     44 HM13         4.1650     2.4730     2.0650 h1         1 0ZI       0.040700
     45 HM21         6.1220    -0.5970    -0.1390 h1         1 0ZI       0.040700
     46 HM22         6.6840     1.0680    -0.4050 h1         1 0ZI       0.040700
     47 HM23         7.0600     0.2290     1.1260 h1         1 0ZI       0.040700
     48 H           -1.2290    -2.2410     0.6060 hn         1 0ZI       0.514000
     49 HA          -0.8760    -0.3760    -1.5260 h1         1 0ZI       0.081700
     50 HB2         -3.0650     0.6760    -1.3770 hc         1 0ZI       0.061200
     51 HB3         -3.2150    -0.9740    -1.9490 hc         1 0ZI       0.061200
     52 HG2         -3.9570    -1.7010     0.3480 hc         1 0ZI       0.073200
     53 HG3         -3.7940    -0.0400     0.9250 hc         1 0ZI       0.073200
     54 HD2         -5.5260     0.7070    -0.7200 h1         1 0ZI       0.065200
     55 HD3         -5.6940    -0.9700    -1.2930 h1         1 0ZI       0.065200
     56 HE          -5.9960    -0.9720     1.5380 hn         1 0ZI       0.377000
     57 HH11        -7.8500     0.1640    -1.2020 hn         1 0ZI       0.378500
     58 HH12        -9.3510     0.0340    -0.3820 hn         1 0ZI       0.378500
     59 HH21        -9.3740    -0.7190     1.8240 hn         1 0ZI       0.378500
     60 HH22        -7.9040    -1.1330     2.5950 hn         1 0ZI       0.378500
     61 H21         -0.8850     3.3540     1.5610 h1         1 0ZI       0.056950
     62 H22         -0.3320     1.9290     2.4500 h1         1 0ZI       0.056950
     63 H31          1.5590     3.5050     2.0450 hc         1 0ZI       0.058200
     64 H32          1.8360     1.9600     1.2470 hc         1 0ZI       0.058200
     65 H41          0.8140     4.5370    -0.0820 hc         1 0ZI       0.045700
     66 H51          0.7450     3.2740    -2.2210 hc         1 0ZI       0.058200
     67 H52          1.3500     1.8240    -1.4290 hc         1 0ZI       0.058200
     68 H61         -1.0940     1.6820    -1.7560 h1         1 0ZI       0.056950
     69 H62         -1.3400     3.1960    -0.8910 h1         1 0ZI       0.056950
     70 H1'1         3.2570     4.4960     0.4520 hc         1 0ZI       0.049200
     71 H1'2         3.4490     3.0310    -0.4900 hc         1 0ZI       0.049200
     72 H2'1         2.8610     4.2460    -2.5800 hc         1 0ZI       0.033700
     73 H2'2         2.5100     5.7200    -1.6440 hc         1 0ZI       0.033700
     74 H2'3         4.1670     5.0850    -1.7270 hc         1 0ZI       0.033700
@<TRIPOS>BOND
     1     1     2 ar  
     2     1    10 ar  
     3     1    14 1   
     4     2     3 ar  
     5     2    36 1   
     6     3     4 ar  
     7     3    37 1   
     8     4     5 ar  
     9     4    38 1   
    10     5     6 ar  
    11     5    10 ar  
    12     6     7 ar  
    13     6    11 1   
    14     7     8 ar  
    15     7    39 1   
    16     8     9 ar  
    17     8    40 1   
    18     9    10 ar  
    19     9    41 1   
    20    11    12 1   
    21    11    13 1   
    22    12    42 1   
    23    12    43 1   
    24    12    44 1   
    25    13    45 1   
    26    13    46 1   
    27    13    47 1   
    28    14    15 2   
    29    14    16 2   
    30    14    17 1   
    31    17    18 1   
    32    17    48 1   
    33    18    19 1   
    34    18    21 1   
    35    18    49 1   
    36    19    20 2   
    37    19    28 1   
    38    21    22 1   
    39    21    50 1   
    40    21    51 1   
    41    22    23 1   
    42    22    52 1   
    43    22    53 1   
    44    23    24 1   
    45    23    54 1   
    46    23    55 1   
    47    24    25 2   
    48    24    56 1   
    49    25    26 1   
    50    25    27 1   
    51    26    57 1   
    52    26    58 1   
    53    27    59 1   
    54    27    60 1   
    55    28    29 1   
    56    28    33 1   
    57    29    30 1   
    58    29    61 1   
    59    29    62 1   
    60    30    31 1   
    61    30    63 1   
    62    30    64 1   
    63    31    32 1   
    64    31    34 1   
    65    31    65 1   
    66    32    33 1   
    67    32    66 1   
    68    32    67 1   
    69    33    68 1   
    70    33    69 1   
    71    34    35 1   
    72    34    70 1   
    73    34    71 1   
    74    35    72 1   
    75    35    73 1   
    76    35    74 1   
@<TRIPOS>SUBSTRUCTURE
     1 0ZI         1 TEMP              0 ****  ****    0 ROOT
