@<TRIPOS>MOLECULE
0ZI
   74    76     1     0     0
SMALL
bcc


@<TRIPOS>ATOM
      1 C1           1.3590    -1.5710    -1.1350 ca         1 0ZI      -0.309500
      2 C2           1.7340    -1.1370    -2.3800 ca         1 0ZI      -0.007000
      3 C3           2.8290    -0.2730    -2.5230 ca         1 0ZI      -0.177000
      4 C4           3.5260     0.1330    -1.4210 ca         1 0ZI      -0.036000
      5 C4A          3.1920    -0.3250    -0.1270 ca         1 0ZI      -0.071000
      6 C5           3.9390     0.1120     1.0150 ca         1 0ZI       0.154600
      7 C6           3.5070    -0.2510     2.2690 ca         1 0ZI      -0.190000
      8 C7           2.3990    -1.0990     2.4260 ca         1 0ZI      -0.061000
      9 C8           1.7120    -1.5850     1.3510 ca         1 0ZI      -0.173000
     10 C8A          2.0720    -1.1910     0.0410 ca         1 0ZI       0.058000
     11 N            5.0600     0.9260     0.8090 nh         1 0ZI      -0.649000
     12 CM1          5.4290     1.8070     1.8950 c3         1 0ZI       0.169600
     13 CM2          6.2240     0.2530     0.2510 c3         1 0ZI       0.169600
     14 S           -0.1080    -2.5810    -1.0490 sy         1 0ZI       1.290200
     15 O1S         -0.6250    -2.6920    -2.4040 o          1 0ZI      -0.600800
     16 O2S          0.1620    -3.7940    -0.2930 o          1 0ZI      -0.600800
     17 N1          -1.2190    -1.7360    -0.1830 n7         1 0ZI      -0.832100
     18 CA          -1.5310    -0.3700    -0.5800 c3         1 0ZI       0.149500
     19 C           -1.1670     0.5560     0.5890 c          1 0ZI       0.645100
     20 O           -1.1480     0.0860     1.7210 o          1 0ZI      -0.615100
     21 CB          -3.0090    -0.2330    -0.9570 c3         1 0ZI      -0.065400
     22 CG          -3.9670    -0.5210     0.1910 c3         1 0ZI      -0.092400
     23 CD          -5.4050    -0.5190    -0.2960 c3         1 0ZI       0.029300
     24 NE          -6.3050    -0.7740     0.8160 nu         1 0ZI      -0.403100
     25 CZ          -7.6280    -0.7740     0.7210 cz         1 0ZI       0.528300
     26 NH1         -8.2160    -0.5420    -0.4440 nv         1 0ZI      -0.511200
     27 NH2         -8.3670    -1.0100     1.7980 nv         1 0ZI      -0.511200
     28 N11         -0.9520     1.8530     0.3270 n          1 0ZI      -0.452800
     29 C21         -0.5080     2.7490     1.3870 c6         1 0ZI       0.089500
     30 C31          0.9770     3.0450     1.2270 c6         1 0ZI      -0.101900
     31 C41          1.3130     3.5990    -0.1580 c6         1 0ZI      -0.054700
     32 C51          0.7190     2.7000    -1.2420 c6         1 0ZI      -0.101900
     33 C61         -0.7580     2.4290    -0.9950 c6         1 0ZI       0.089500
     34 C9           2.8210     3.7950    -0.3010 c3         1 0ZI      -0.078400
     35 C10          3.2700     4.3050    -1.6630 c3         1 0ZI      -0.088100
     36 H2           1.1790    -1.4330    -3.2590 ha         1 0ZI       0.161000
     37 H3           3.0940     0.0920    -3.5060 ha         1 0ZI       0.144000
     38 H4           4.3300     0.8470    -1.5330 ha         1 0ZI       0.154000
     39 H6           4.0360     0.0830     3.1510 ha         1 0ZI       0.142000
     40 H7           2.1030    -1.3940     3.4240 ha         1 0ZI       0.140000
     41 H8           0.9130    -2.2860     1.5300 ha         1 0ZI       0.140000
     42 HM11         5.9000     1.2900     2.7420 h1         1 0ZI       0.040700
     43 HM12         6.1420     2.5430     1.5220 h1         1 0ZI       0.040700
     44 HM13         4.5550     2.3440     2.2620 h1         1 0ZI       0.040700
     45 HM21         5.9440    -0.4360    -0.5430 h1         1 0ZI       0.040700
     46 HM22         6.9080     0.9900    -0.1710 h1         1 0ZI       0.040700
     47 HM23         6.7700    -0.3200     1.0130 h1         1 0ZI       0.040700
     48 H           -1.1340    -1.8470     0.8240 hn         1 0ZI       0.458800
     49 HA          -0.9420    -0.1150    -1.4630 h1         1 0ZI       0.081700
     50 HB2         -3.1880     0.7720    -1.3470 hc         1 0ZI       0.061200
     51 HB3         -3.1960    -0.9270    -1.7800 hc         1 0ZI       0.061200
     52 HG2         -3.7350    -1.4940     0.6320 hc         1 0ZI       0.073200
     53 HG3         -3.8590     0.2300     0.9770 hc         1 0ZI       0.073200
     54 HD2         -5.6420     0.4500    -0.7430 h1         1 0ZI       0.065200
     55 HD3         -5.5370    -1.2840    -1.0680 h1         1 0ZI       0.065200
     56 HE          -5.9010    -0.9970     1.7120 hn         1 0ZI       0.326700
     57 HH11        -7.6910    -0.4490    -1.2970 hn         1 0ZI       0.328200
     58 HH12        -9.2180    -0.5500    -0.5280 hn         1 0ZI       0.328200
     59 HH21        -9.3710    -0.9830     1.7560 hn         1 0ZI       0.328200
     60 HH22        -7.9470    -1.0900     2.7090 hn         1 0ZI       0.328200
     61 H21         -1.0930     3.6710     1.3150 h1         1 0ZI       0.056950
     62 H22         -0.7210     2.3060     2.3550 h1         1 0ZI       0.056950
     63 H31          1.2860     3.7540     2.0000 hc         1 0ZI       0.058200
     64 H32          1.5410     2.1210     1.3990 hc         1 0ZI       0.058200
     65 H41          0.8350     4.5840    -0.2530 hc         1 0ZI       0.045700
     66 H51          0.8280     3.1570    -2.2280 hc         1 0ZI       0.058200
     67 H52          1.2580     1.7470    -1.2720 hc         1 0ZI       0.058200
     68 H61         -1.1740     1.7940    -1.7720 h1         1 0ZI       0.056950
     69 H62         -1.3280     3.3620    -1.0340 h1         1 0ZI       0.056950
     70 H1'1         3.1470     4.4960     0.4730 hc         1 0ZI       0.049200
     71 H1'2         3.3320     2.8520    -0.0820 hc         1 0ZI       0.049200
     72 H2'1         3.1050     3.5660    -2.4480 hc         1 0ZI       0.033700
     73 H2'2         2.7350     5.2140    -1.9480 hc         1 0ZI       0.033700
     74 H2'3         4.3360     4.5380    -1.6590 hc         1 0ZI       0.033700
@<TRIPOS>BOND
     1     1     2 ar  
     2     1    10 ar  
     3     1    14 1   
     4     2     3 ar  
     5     2    36 1   
     6     3     4 ar  
     7     3    37 1   
     8     4     5 ar  
     9     4    38 1   
    10     5     6 ar  
    11     5    10 ar  
    12     6     7 ar  
    13     6    11 1   
    14     7     8 ar  
    15     7    39 1   
    16     8     9 ar  
    17     8    40 1   
    18     9    10 ar  
    19     9    41 1   
    20    11    12 1   
    21    11    13 1   
    22    12    42 1   
    23    12    43 1   
    24    12    44 1   
    25    13    45 1   
    26    13    46 1   
    27    13    47 1   
    28    14    15 2   
    29    14    16 2   
    30    14    17 1   
    31    17    18 1   
    32    17    48 1   
    33    18    19 1   
    34    18    21 1   
    35    18    49 1   
    36    19    20 2   
    37    19    28 1   
    38    21    22 1   
    39    21    50 1   
    40    21    51 1   
    41    22    23 1   
    42    22    52 1   
    43    22    53 1   
    44    23    24 1   
    45    23    54 1   
    46    23    55 1   
    47    24    25 2   
    48    24    56 1   
    49    25    26 1   
    50    25    27 1   
    51    26    57 1   
    52    26    58 1   
    53    27    59 1   
    54    27    60 1   
    55    28    29 1   
    56    28    33 1   
    57    29    30 1   
    58    29    61 1   
    59    29    62 1   
    60    30    31 1   
    61    30    63 1   
    62    30    64 1   
    63    31    32 1   
    64    31    34 1   
    65    31    65 1   
    66    32    33 1   
    67    32    66 1   
    68    32    67 1   
    69    33    68 1   
    70    33    69 1   
    71    34    35 1   
    72    34    70 1   
    73    34    71 1   
    74    35    72 1   
    75    35    73 1   
    76    35    74 1   
@<TRIPOS>SUBSTRUCTURE
     1 0ZI         1 TEMP              0 ****  ****    0 ROOT
