@<TRIPOS>MOLECULE
0ZJ
   71    72     1     0     0
SMALL
bcc


@<TRIPOS>ATOM
      1 C1          20.4540    53.8800    44.2370 c          1 0ZJ       0.653100
      2 O2          19.3960    53.2870    44.3830 o          1 0ZJ      -0.573100
      3 C2          21.6430    53.5190    45.1090 c3         1 0ZJ      -0.081300
      4 S2          22.9880    54.7310    45.2270 sh         1 0ZJ      -0.353900
      5 N           20.6380    54.8210    43.3040 ns         1 0ZJ      -0.553900
      6 CA          19.5530    55.2550    42.4590 c3         1 0ZJ       0.049700
      7 C           18.4460    55.8660    43.3220 c          1 0ZJ       0.675100
      8 O           18.7390    56.6220    44.2400 o          1 0ZJ      -0.660100
      9 CB          20.0790    56.3200    41.4840 c3         1 0ZJ      -0.038100
     10 CG          19.0250    56.7720    40.5130 ca         1 0ZJ      -0.099300
     11 CD1         18.8100    56.0670    39.3310 ca         1 0ZJ      -0.120500
     12 CD2         18.2150    57.8680    40.7960 ca         1 0ZJ      -0.120500
     13 CE1         17.8030    56.4430    38.4530 ca         1 0ZJ      -0.126500
     14 CE2         17.2030    58.2440    39.9230 ca         1 0ZJ      -0.126500
     15 CZ          16.9910    57.5300    38.7510 ca         1 0ZJ      -0.117000
     16 N1          17.1730    55.6070    42.9990 n          1 0ZJ      -0.438800
     17 CA1         16.1100    56.2850    43.7160 c5         1 0ZJ       0.031700
     18 C3          16.0130    55.7630    45.1470 c          1 0ZJ       0.662100
     19 O1          16.1110    54.5710    45.3940 o          1 0ZJ      -0.584100
     20 CB1         14.8570    55.9270    42.9060 c5         1 0ZJ      -0.080400
     21 CG1         15.1870    54.5660    42.3050 c5         1 0ZJ      -0.091400
     22 CD          16.6780    54.6600    42.0030 c5         1 0ZJ       0.106000
     23 N2          15.7620    56.7060    46.0690 ns         1 0ZJ      -0.574900
     24 CA2         15.5520    56.4430    47.4730 c3         1 0ZJ       0.115700
     25 C4          14.2410    57.0770    47.9540 c3         1 0ZJ       0.133100
     26 CB2         16.7450    56.9090    48.3080 c3         1 0ZJ      -0.081400
     27 CG2         18.0260    56.1530    47.9840 c3         1 0ZJ      -0.099400
     28 CD3         19.1550    56.5830    48.9050 c3         1 0ZJ       0.030300
     29 NE          20.3680    55.8410    48.5990 nu         1 0ZJ      -0.400100
     30 CZ1         21.4320    55.7810    49.3890 cz         1 0ZJ       0.525300
     31 NH1         22.4630    55.0110    49.0600 nv         1 0ZJ      -0.512700
     32 NH2         21.4600    56.4660    50.5260 nv         1 0ZJ      -0.512700
     33 O3          14.0170    56.5620    49.2450 oh         1 0ZJ      -0.596800
     34 CM          13.0420    56.7210    47.0700 c3         1 0ZJ       0.018000
     35 CL          12.8530    57.8400    45.6740 cl         1 0ZJ      -0.202400
     36 H21         21.2740    53.2730    46.1030 h1         1 0ZJ       0.096700
     37 H22         22.0990    52.6110    44.7070 h1         1 0ZJ       0.096700
     38 HS2         22.3140    55.6720    45.9000 hs         1 0ZJ       0.177800
     39 H           21.5130    55.3240    43.2800 hn         1 0ZJ       0.338500
     40 HA          19.1860    54.4040    41.8820 h1         1 0ZJ       0.086700
     41 HB2         20.4580    57.1690    42.0580 hc         1 0ZJ       0.063200
     42 HB3         20.9240    55.8900    40.9430 hc         1 0ZJ       0.063200
     43 HD1         19.4380    55.2150    39.0960 ha         1 0ZJ       0.132500
     44 HD2         18.3730    58.4340    41.7070 ha         1 0ZJ       0.132500
     45 HE1         17.6510    55.8850    37.5380 ha         1 0ZJ       0.137500
     46 HE2         16.5800    59.0980    40.1570 ha         1 0ZJ       0.137500
     47 HZ          16.2030    57.8230    38.0690 ha         1 0ZJ       0.139000
     48 HA1         16.2810    57.3640    43.7130 h1         1 0ZJ       0.073700
     49 HB21        13.9520    55.9300    43.5130 hc         1 0ZJ       0.064700
     50 HB31        14.7250    56.6720    42.1190 hc         1 0ZJ       0.064700
     51 HG2         14.9950    53.7730    43.0270 hc         1 0ZJ       0.070200
     52 HG3         14.6080    54.3500    41.4080 hc         1 0ZJ       0.070200
     53 HD21        16.8520    55.0400    40.9940 h1         1 0ZJ       0.059700
     54 HD3         17.1760    53.6950    42.0930 h1         1 0ZJ       0.059700
     55 H1          15.7770    57.6710    45.7750 hn         1 0ZJ       0.320500
     56 HA2         15.4440    55.3600    47.5780 h1         1 0ZJ       0.100700
     57 H35         14.3500    58.1710    47.9760 h1         1 0ZJ       0.046700
     58 HB22        16.8930    57.9830    48.1520 hc         1 0ZJ       0.053700
     59 HB32        16.5070    56.7780    49.3650 hc         1 0ZJ       0.053700
     60 HG21        17.8620    55.0790    48.0980 hc         1 0ZJ       0.080700
     61 HG31        18.3200    56.3270    46.9450 hc         1 0ZJ       0.080700
     62 HD22        19.3300    57.6590    48.8070 h1         1 0ZJ       0.063200
     63 HD31        18.8660    56.3860    49.9400 h1         1 0ZJ       0.063200
     64 HE          20.4280    55.3950    47.6950 hn         1 0ZJ       0.324700
     65 HH1         23.3120    55.0180    49.6000 hn         1 0ZJ       0.327450
     66 HH21        22.2570    56.4160    51.1390 hn         1 0ZJ       0.327450
     67 HH22        20.7830    57.1820    50.7260 hn         1 0ZJ       0.327450
     68 H36         13.3580    57.1060    49.6880 ho         1 0ZJ       0.420000
     69 H34         22.4420    54.4220    48.2440 hn         1 0ZJ       0.327450
     70 HM1         13.1100    55.7090    46.6720 h1         1 0ZJ       0.081700
     71 HM2         12.1210    56.8090    47.6440 h1         1 0ZJ       0.081700
@<TRIPOS>BOND
     1     1     2 2   
     2     1     3 1   
     3     1     5 1   
     4     3     4 1   
     5     3    36 1   
     6     3    37 1   
     7     4    38 1   
     8     5     6 1   
     9     5    39 1   
    10     6     7 1   
    11     6     9 1   
    12     6    40 1   
    13     7     8 2   
    14     7    16 1   
    15     9    10 1   
    16     9    41 1   
    17     9    42 1   
    18    10    11 ar  
    19    10    12 ar  
    20    11    13 ar  
    21    11    43 1   
    22    12    14 ar  
    23    12    44 1   
    24    13    15 ar  
    25    13    45 1   
    26    14    15 ar  
    27    14    46 1   
    28    15    47 1   
    29    16    17 1   
    30    16    22 1   
    31    17    18 1   
    32    17    20 1   
    33    17    48 1   
    34    18    19 2   
    35    18    23 1   
    36    20    21 1   
    37    20    49 1   
    38    20    50 1   
    39    21    22 1   
    40    21    51 1   
    41    21    52 1   
    42    22    53 1   
    43    22    54 1   
    44    23    24 1   
    45    23    55 1   
    46    24    25 1   
    47    24    26 1   
    48    24    56 1   
    49    25    33 1   
    50    25    34 1   
    51    25    57 1   
    52    26    27 1   
    53    26    58 1   
    54    26    59 1   
    55    27    28 1   
    56    27    60 1   
    57    27    61 1   
    58    28    29 1   
    59    28    62 1   
    60    28    63 1   
    61    29    30 2   
    62    29    64 1   
    63    30    31 1   
    64    30    32 1   
    65    31    65 1   
    66    31    69 1   
    67    32    66 1   
    68    32    67 1   
    69    33    68 1   
    70    34    35 1   
    71    34    70 1   
    72    34    71 1   
@<TRIPOS>SUBSTRUCTURE
     1 0ZJ         1 TEMP              0 ****  ****    0 ROOT
