@<TRIPOS>MOLECULE
0ZJ
   71    72     1     0     0
SMALL
No Charge or Current Charge


@<TRIPOS>ATOM
      1 C1          21.6710    53.7740    43.1530 c          1 0ZJ       0.586100
      2 O2          21.5570    53.0700    42.1600 o          1 0ZJ      -0.573100
      3 C2          22.7690    53.5640    44.2050 c3         1 0ZJ      -0.033400
      4 S2          22.0620    53.3280    45.9200 sh         1 0ZJ      -0.401800
      5 N           20.8100    54.8120    43.4240 ns         1 0ZJ      -0.486900
      6 CA          19.6530    55.2110    42.5920 c3         1 0ZJ       0.049700
      7 C           18.6040    55.9230    43.5050 c          1 0ZJ       0.608100
      8 O           18.9680    56.5370    44.5050 o          1 0ZJ      -0.660100
      9 CB          20.1290    56.1200    41.4280 c3         1 0ZJ      -0.038100
     10 CG          19.0510    56.4070    40.3930 ca         1 0ZJ      -0.099300
     11 CD1         18.8100    55.4920    39.3500 ca         1 0ZJ      -0.102500
     12 CD2         18.2790    57.5830    40.4760 ca         1 0ZJ      -0.102500
     13 CE1         17.8010    55.7450    38.4050 ca         1 0ZJ      -0.108500
     14 CE2         17.2690    57.8350    39.5330 ca         1 0ZJ      -0.108500
     15 CZ          17.0280    56.9160    38.4970 ca         1 0ZJ      -0.099000
     16 N1          17.2320    55.8960    43.1660 n          1 0ZJ      -0.371800
     17 CA1         16.2200    56.6090    43.9880 c5         1 0ZJ       0.031700
     18 C3          15.9730    55.9520    45.3850 c          1 0ZJ       0.595100
     19 O1          16.1490    54.7810    45.6980 o          1 0ZJ      -0.584100
     20 CB1         14.9590    56.4560    43.0890 c5         1 0ZJ      -0.080400
     21 CG1         15.1210    55.0180    42.5350 c5         1 0ZJ      -0.091400
     22 CD          16.6310    54.9650    42.1800 c5         1 0ZJ       0.106000
     23 N2          15.5390    56.9120    46.2780 ns         1 0ZJ      -0.507900
     24 CA2         15.2470    56.6630    47.6990 c3         1 0ZJ       0.115700
     25 C4          13.9340    57.3790    48.1590 c3         1 0ZJ       0.156300
     26 CB2         16.4750    57.0300    48.5820 c3         1 0ZJ      -0.081400
     27 CG2         17.7870    56.2940    48.2090 c3         1 0ZJ      -0.099400
     28 CD3         18.9440    56.6000    49.1750 c3         1 0ZJ       0.059600
     29 NE          20.1560    55.8730    48.7520 nu         1 0ZJ      -0.885000
     30 CZ1         21.3340    55.8230    49.3350 cz         1 0ZJ       0.930600
     31 NH1         22.2770    55.1090    48.7980 nv         1 0ZJ      -0.613300
     32 NH2         21.5600    56.4820    50.4330 nv         1 0ZJ      -0.613300
     33 O3          13.5980    56.9620    49.4950 oh         1 0ZJ      -0.659000
     34 CM          12.7180    57.1150    47.2280 c3         1 0ZJ       0.094600
     35 Cl          12.6690    58.2510    45.8010 cl         1 0ZJ      -0.279000
     36 H21         23.3580    52.6820    43.9240 h1         1 0ZJ       0.096700
     37 H22         23.4220    54.4450    44.1990 h1         1 0ZJ       0.096700
     38 HS2         21.3460    52.2110    45.6390 hs         1 0ZJ       0.177800
     39 H           20.9600    55.3120    44.2940 hn         1 0ZJ       0.338500
     40 HA          19.1980    54.3040    42.1790 h1         1 0ZJ       0.086700
     41 HB2         20.5180    57.0580    41.8430 hc         1 0ZJ       0.063200
     42 HB3         20.9800    55.6410    40.9300 hc         1 0ZJ       0.063200
     43 HD1         19.4000    54.5800    39.2750 ha         1 0ZJ       0.114500
     44 HD2         18.4540    58.2980    41.2780 ha         1 0ZJ       0.114500
     45 HE1         17.6160    55.0340    37.6030 ha         1 0ZJ       0.119500
     46 HE2         16.6710    58.7410    39.6050 ha         1 0ZJ       0.119500
     47 HZ          16.2460    57.1100    37.7670 ha         1 0ZJ       0.121000
     48 HA1         16.4890    57.6640    44.1290 h1         1 0ZJ       0.073700
     49 HB21        14.0200    56.5970    43.6360 hc         1 0ZJ       0.064700
     50 HB31        14.9710    57.1910    42.2740 hc         1 0ZJ       0.064700
     51 HG2         14.8690    54.2670    43.2930 hc         1 0ZJ       0.070200
     52 HG3         14.4830    54.8230    41.6660 hc         1 0ZJ       0.070200
     53 HD21        16.7910    55.3210    41.1560 h1         1 0ZJ       0.059700
     54 HD3         17.0270    53.9450    42.2620 h1         1 0ZJ       0.059700
     55 H1          15.4160    57.8520    45.9180 hn         1 0ZJ       0.320500
     56 HA2         15.0690    55.5850    47.8210 h1         1 0ZJ       0.100700
     57 H35         14.1240    58.4610    48.1570 h1         1 0ZJ       0.046700
     58 HB22        16.6450    58.1130    48.5260 hc         1 0ZJ       0.053700
     59 HB32        16.2400    56.8040    49.6290 hc         1 0ZJ       0.053700
     60 HG21        17.6030    55.2120    48.1990 hc         1 0ZJ       0.080700
     61 HG31        18.0920    56.5810    47.1960 hc         1 0ZJ       0.080700
     62 HD22        19.1320    57.6830    49.1810 h1         1 0ZJ       0.063200
     63 HD31        18.6530    56.2980    50.1920 h1         1 0ZJ       0.063200
     64 HE          20.0790    55.3600    47.8820 hn         1 0ZJ       0.375000
     65 HH1         23.1910    55.0370    49.2120 hn         1 0ZJ       0.377750
     66 HH21        22.4530    56.4660    50.8970 hn         1 0ZJ       0.377750
     67 HH22        20.8390    57.0440    50.8510 hn         1 0ZJ       0.377750
     68 H36         13.0140    57.6530    49.8830 ho         1 0ZJ       0.459000
     69 H34         22.1210    54.5770    47.9570 hn         1 0ZJ       0.377750
     70 HM1         12.7390    56.0860    46.8460 h1         1 0ZJ       0.081700
     71 HM2         11.7790    57.2660    47.7760 h1         1 0ZJ       0.081700
@<TRIPOS>BOND
     1     1     2 2   
     2     1     3 1   
     3     1     5 1   
     4     3     4 1   
     5     3    36 1   
     6     3    37 1   
     7     4    38 1   
     8     5     6 1   
     9     5    39 1   
    10     6     7 1   
    11     6     9 1   
    12     6    40 1   
    13     7     8 2   
    14     7    16 1   
    15     9    10 1   
    16     9    41 1   
    17     9    42 1   
    18    10    11 ar  
    19    10    12 ar  
    20    11    13 ar  
    21    11    43 1   
    22    12    14 ar  
    23    12    44 1   
    24    13    15 ar  
    25    13    45 1   
    26    14    15 ar  
    27    14    46 1   
    28    15    47 1   
    29    16    17 1   
    30    16    22 1   
    31    17    18 1   
    32    17    20 1   
    33    17    48 1   
    34    18    19 2   
    35    18    23 1   
    36    20    21 1   
    37    20    49 1   
    38    20    50 1   
    39    21    22 1   
    40    21    51 1   
    41    21    52 1   
    42    22    53 1   
    43    22    54 1   
    44    23    24 1   
    45    23    55 1   
    46    24    25 1   
    47    24    26 1   
    48    24    56 1   
    49    25    33 1   
    50    25    34 1   
    51    25    57 1   
    52    26    27 1   
    53    26    58 1   
    54    26    59 1   
    55    27    28 1   
    56    27    60 1   
    57    27    61 1   
    58    28    29 1   
    59    28    62 1   
    60    28    63 1   
    61    29    30 2   
    62    29    64 1   
    63    30    31 1   
    64    30    32 1   
    65    31    65 1   
    66    31    69 1   
    67    32    66 1   
    68    32    67 1   
    69    33    68 1   
    70    34    35 1   
    71    34    70 1   
    72    34    71 1   
@<TRIPOS>SUBSTRUCTURE
     1 0ZJ         1 TEMP              0 ****  ****    0 ROOT
