@<TRIPOS>MOLECULE
0ZL
   93    93     1     0     0
SMALL
No Charge or Current Charge


@<TRIPOS>ATOM
      1 C3          24.4860     9.4720    -0.6180 c3         1 0ZL      -0.099100
      2 C4          25.6020     9.2090    -1.6430 c3         1 0ZL       0.185600
      3 O2          26.7650     8.7840    -0.9140 os         1 0ZL      -0.460100
      4 C1          27.8870     8.4970    -1.6280 c          1 0ZL       0.641100
      5 O1          27.9950     8.5500    -2.8430 o          1 0ZL      -0.545000
      6 N           28.8690     8.1060    -0.7640 ns         1 0ZL      -0.475900
      7 CA          30.2410     7.7030    -1.1440 c3         1 0ZL       0.050700
      8 C           30.6980     6.4910    -0.2830 c          1 0ZL       0.584100
      9 O           30.1260     6.1350     0.7410 o          1 0ZL      -0.602100
     10 CB          31.2400     8.8880    -0.9830 c3         1 0ZL      -0.085400
     11 CG          31.0420    10.0940    -1.9420 c3         1 0ZL      -0.058700
     12 CD1         31.9500    11.2750    -1.5300 c3         1 0ZL      -0.092100
     13 CD2         31.2800     9.7200    -3.4250 c3         1 0ZL      -0.092100
     14 N1          31.8270     5.8480    -0.7440 ns         1 0ZL      -0.497900
     15 CA1         32.5590     4.7940    -0.0160 c3         1 0ZL       0.039700
     16 C2          34.0570     4.8970    -0.4000 c          1 0ZL       0.582100
     17 O3          34.4380     5.0740    -1.5530 o          1 0ZL      -0.638100
     18 CB1         31.9580     3.3970    -0.3300 c3         1 0ZL      -0.081400
     19 CG1         32.6120     2.1990     0.4140 c3         1 0ZL      -0.061700
     20 CD11        32.4600     2.2940     1.9510 c3         1 0ZL      -0.090100
     21 CD21        32.0570     0.8550    -0.1090 c3         1 0ZL      -0.090100
     22 C11         36.3890     5.0840     0.5240 c3         1 0ZL       0.108700
     23 N2          34.9500     4.8060     0.6420 ns         1 0ZL      -0.483900
     24 C21         37.2350     3.7780     0.3790 c3         1 0ZL       0.125300
     25 O21         37.1880     3.0280     1.6110 oh         1 0ZL      -0.665000
     26 C31         36.7700     2.8780    -0.8200 c3         1 0ZL       0.148300
     27 O31         36.7120     3.6510    -2.0310 oh         1 0ZL      -0.670000
     28 C41         37.6760     1.6350    -1.0520 c3         1 0ZL      -0.069400
     29 C5          37.2070     0.6650    -2.1760 c3         1 0ZL      -0.056700
     30 C6          35.7990     0.0750    -1.9130 c3         1 0ZL      -0.088600
     31 C7          38.2400    -0.4640    -2.3940 c3         1 0ZL      -0.088600
     32 C15         36.8570     6.0370     1.6580 c3         1 0ZL      -0.081400
     33 C10         36.0090     7.3410     1.8490 c6         1 0ZL      -0.062700
     34 C12         35.9180     8.2060     0.5560 c6         1 0ZL      -0.073400
     35 C14         36.5620     8.1940     3.0250 c6         1 0ZL      -0.073400
     36 C8          35.0690     9.4810     0.7830 c6         1 0ZL      -0.073400
     37 C13         35.7130     9.4700     3.2520 c6         1 0ZL      -0.073400
     38 C9          35.6180    10.3190     1.9620 c6         1 0ZL      -0.076400
     39 H31         24.2570     8.5610    -0.0540 hc         1 0ZL       0.047033
     40 H32         24.7870    10.2560     0.0870 hc         1 0ZL       0.047033
     41 H33         23.5730     9.8010    -1.1280 hc         1 0ZL       0.047033
     42 H41         25.2760     8.4320    -2.3480 h1         1 0ZL       0.049200
     43 H42         25.8060    10.1290    -2.2060 h1         1 0ZL       0.049200
     44 H           28.6050     8.0680     0.2130 hn         1 0ZL       0.331500
     45 HA          30.2390     7.3590    -2.1860 h1         1 0ZL       0.082700
     46 HBC1        31.1820     9.2430     0.0540 hc         1 0ZL       0.056700
     47 HBC2        32.2650     8.5170    -1.1150 hc         1 0ZL       0.056700
     48 HG          30.0060    10.4420    -1.8470 hc         1 0ZL       0.052700
     49 HD11        33.0090    11.0000    -1.6050 hc         1 0ZL       0.036033
     50 HD12        31.7750    12.1440    -2.1770 hc         1 0ZL       0.036033
     51 HD13        31.7470    11.5810    -0.4960 hc         1 0ZL       0.036033
     52 HD21        31.1410    10.5950    -4.0700 hc         1 0ZL       0.036033
     53 HD22        32.3000     9.3450    -3.5740 hc         1 0ZL       0.036033
     54 HD23        30.5790     8.9480    -3.7620 hc         1 0ZL       0.036033
     55 H1          32.2360     6.1970    -1.6050 hn         1 0ZL       0.328500
     56 HA1         32.4730     4.9980     1.0590 h1         1 0ZL       0.089700
     57 HB2         30.8860     3.4130    -0.0980 hc         1 0ZL       0.059700
     58 HB3         32.0350     3.2270    -1.4120 hc         1 0ZL       0.059700
     59 HG1         33.6850     2.2000     0.1900 hc         1 0ZL       0.050700
     60 HD14        32.9640     3.1820     2.3490 hc         1 0ZL       0.035033
     61 HD15        31.4020     2.3410     2.2360 hc         1 0ZL       0.035033
     62 HD16        32.9060     1.4180     2.4370 hc         1 0ZL       0.035033
     63 HD24        30.9800     0.7740     0.0850 hc         1 0ZL       0.035033
     64 HD25        32.2200     0.7610    -1.1890 hc         1 0ZL       0.035033
     65 HD26        32.5580     0.0110     0.3800 hc         1 0ZL       0.035033
     66 H11         36.5460     5.6470    -0.4050 h1         1 0ZL       0.086700
     67 HN2         34.5760     4.6210     1.5640 hn         1 0ZL       0.330500
     68 H2          38.2720     4.0850     0.1820 h1         1 0ZL       0.045700
     69 HO2         37.9300     2.3840     1.5920 ho         1 0ZL       0.448000
     70 H3          35.7650     2.5130    -0.5780 h1         1 0ZL       0.042700
     71 HO3         35.8890     4.2070    -1.9630 ho         1 0ZL       0.472000
     72 H411        38.6910     1.9830    -1.2810 hc         1 0ZL       0.039200
     73 H421        37.7500     1.0630    -0.1190 hc         1 0ZL       0.039200
     74 H5          37.1550     1.2320    -3.1140 hc         1 0ZL       0.066700
     75 H61         35.7660    -0.4420    -0.9460 hc         1 0ZL       0.031533
     76 H62         35.0330     0.8600    -1.9120 hc         1 0ZL       0.031533
     77 H63         35.5290    -0.6440    -2.6950 hc         1 0ZL       0.031533
     78 H71         37.9370    -1.1130    -3.2250 hc         1 0ZL       0.031533
     79 H72         39.2260    -0.0480    -2.6360 hc         1 0ZL       0.031533
     80 H73         38.3400    -1.0830    -1.4940 hc         1 0ZL       0.031533
     81 H7'1        36.8570     5.4800     2.6030 hc         1 0ZL       0.053200
     82 H7'2        37.9030     6.3050     1.4680 hc         1 0ZL       0.053200
     83 H8          34.9930     7.0210     2.1220 hc         1 0ZL       0.048700
     84 H2'1        36.9270     8.4880     0.2230 hc         1 0ZL       0.041200
     85 H2'2        35.4680     7.6310    -0.2630 hc         1 0ZL       0.041200
     86 H6'1        36.5770     7.5980     3.9470 hc         1 0ZL       0.041200
     87 H6'2        37.6040     8.4790     2.8220 hc         1 0ZL       0.041200
     88 H3'1        35.0570    10.0890    -0.1320 hc         1 0ZL       0.037700
     89 H3'2        34.0250     9.2000     0.9830 hc         1 0ZL       0.037700
     90 H5'1        34.7040     9.1880     3.5840 hc         1 0ZL       0.037700
     91 H5'2        36.1510    10.0700     4.0610 hc         1 0ZL       0.037700
     92 H4'1        36.6110    10.7130     1.7040 hc         1 0ZL       0.038200
     93 H4'2        34.9710    11.1900     2.1340 hc         1 0ZL       0.038200
@<TRIPOS>BOND
     1     1     2 1   
     2     1    39 1   
     3     1    40 1   
     4     1    41 1   
     5     2     3 1   
     6     2    42 1   
     7     2    43 1   
     8     3     4 1   
     9     4     5 2   
    10     4     6 1   
    11     6     7 1   
    12     6    44 1   
    13     7     8 1   
    14     7    10 1   
    15     7    45 1   
    16     8     9 2   
    17     8    14 1   
    18    10    11 1   
    19    10    46 1   
    20    10    47 1   
    21    11    12 1   
    22    11    13 1   
    23    11    48 1   
    24    12    49 1   
    25    12    50 1   
    26    12    51 1   
    27    13    52 1   
    28    13    53 1   
    29    13    54 1   
    30    14    15 1   
    31    14    55 1   
    32    15    16 1   
    33    15    18 1   
    34    15    56 1   
    35    16    17 2   
    36    16    23 1   
    37    18    19 1   
    38    18    57 1   
    39    18    58 1   
    40    19    20 1   
    41    19    21 1   
    42    19    59 1   
    43    20    60 1   
    44    20    61 1   
    45    20    62 1   
    46    21    63 1   
    47    21    64 1   
    48    21    65 1   
    49    22    23 1   
    50    22    24 1   
    51    22    32 1   
    52    22    66 1   
    53    23    67 1   
    54    24    25 1   
    55    24    26 1   
    56    24    68 1   
    57    25    69 1   
    58    26    27 1   
    59    26    28 1   
    60    26    70 1   
    61    27    71 1   
    62    28    29 1   
    63    28    72 1   
    64    28    73 1   
    65    29    30 1   
    66    29    31 1   
    67    29    74 1   
    68    30    75 1   
    69    30    76 1   
    70    30    77 1   
    71    31    78 1   
    72    31    79 1   
    73    31    80 1   
    74    32    33 1   
    75    32    81 1   
    76    32    82 1   
    77    33    34 1   
    78    33    35 1   
    79    33    83 1   
    80    34    36 1   
    81    34    84 1   
    82    34    85 1   
    83    35    37 1   
    84    35    86 1   
    85    35    87 1   
    86    36    38 1   
    87    36    88 1   
    88    36    89 1   
    89    37    38 1   
    90    37    90 1   
    91    37    91 1   
    92    38    92 1   
    93    38    93 1   
@<TRIPOS>SUBSTRUCTURE
     1 0ZL         1 TEMP              0 ****  ****    0 ROOT
