@<TRIPOS>MOLECULE
0ZL
   93    93     1     0     0
SMALL
bcc


@<TRIPOS>ATOM
      1 C3          24.9290     8.2310     0.7500 c3         1 0ZL      -0.099100
      2 C4          25.9330     7.6350    -0.2070 c3         1 0ZL       0.162400
      3 O2          27.1780     8.3150    -0.0100 os         1 0ZL      -0.436900
      4 C1          28.2280     7.8940    -0.7160 c          1 0ZL       0.757100
      5 O1          28.1950     6.9950    -1.5300 o          1 0ZL      -0.594000
      6 N           29.3330     8.6150    -0.4270 ns         1 0ZL      -0.542900
      7 CA          30.6190     8.2010    -0.9220 c3         1 0ZL       0.050700
      8 C           31.0210     6.8490    -0.3250 c          1 0ZL       0.651100
      9 O           30.6840     6.5240     0.8010 o          1 0ZL      -0.602100
     10 CB          31.6800     9.2430    -0.5570 c3         1 0ZL      -0.085400
     11 CG          31.4690    10.6230    -1.1850 c3         1 0ZL      -0.058700
     12 CD1         32.5290    11.5880    -0.6650 c3         1 0ZL      -0.092100
     13 CD2         31.4950    10.5680    -2.7090 c3         1 0ZL      -0.092100
     14 N1          31.7960     6.0940    -1.1250 ns         1 0ZL      -0.564900
     15 CA1         32.3550     4.8150    -0.7390 c3         1 0ZL       0.039700
     16 C2          33.8750     4.9330    -0.7950 c          1 0ZL       0.649100
     17 O3          34.4530     5.0310    -1.8760 o          1 0ZL      -0.638100
     18 CB1         31.8530     3.6960    -1.6510 c3         1 0ZL      -0.081400
     19 CG1         32.4680     2.3200    -1.3890 c3         1 0ZL      -0.061700
     20 CD11        32.2550     1.8450     0.0450 c3         1 0ZL      -0.090100
     21 CD21        31.9040     1.3070    -2.3800 c3         1 0ZL      -0.090100
     22 C11         35.9280     5.1300     0.5630 c3         1 0ZL       0.108700
     23 N2          34.4990     4.9370     0.3850 ns         1 0ZL      -0.550900
     24 C21         36.6350     3.8140     0.8920 c3         1 0ZL       0.102100
     25 O21         36.1320     3.3580     2.1280 oh         1 0ZL      -0.602800
     26 C31         36.4450     2.7500    -0.2090 c3         1 0ZL       0.125100
     27 O31         36.7950     3.2540    -1.4810 oh         1 0ZL      -0.607800
     28 C41         37.3060     1.5220     0.0570 c3         1 0ZL      -0.069400
     29 C5          37.1520     0.3790    -0.9510 c3         1 0ZL      -0.056700
     30 C6          35.7340    -0.1840    -0.9710 c3         1 0ZL      -0.088600
     31 C7          38.1540    -0.7270    -0.6300 c3         1 0ZL      -0.088600
     32 C15         36.1670     6.2210     1.6060 c3         1 0ZL      -0.081400
     33 C10         35.6810     7.6010     1.1610 c6         1 0ZL      -0.062700
     34 C12         36.5080     8.1650     0.0040 c6         1 0ZL      -0.073400
     35 C14         35.6850     8.5860     2.3280 c6         1 0ZL      -0.073400
     36 C8          36.0230     9.5460    -0.4210 c6         1 0ZL      -0.073400
     37 C13         35.1860     9.9650     1.9090 c6         1 0ZL      -0.073400
     38 C9          36.0040    10.5220     0.7490 c6         1 0ZL      -0.076400
     39 H31         25.2350     8.0960     1.7880 hc         1 0ZL       0.047033
     40 H32         24.7800     9.2950     0.5680 hc         1 0ZL       0.047033
     41 H33         23.9690     7.7320     0.6190 hc         1 0ZL       0.047033
     42 H41         26.0570     6.5670    -0.0190 h1         1 0ZL       0.049200
     43 H42         25.6010     7.7570    -1.2410 h1         1 0ZL       0.049200
     44 H           29.3070     9.2260     0.3750 hn         1 0ZL       0.331500
     45 HA          30.5700     8.1070    -2.0100 h1         1 0ZL       0.082700
     46 HBC1        31.7200     9.3380     0.5330 hc         1 0ZL       0.056700
     47 HBC2        32.6580     8.8600    -0.8660 hc         1 0ZL       0.056700
     48 HG          30.4910    11.0050    -0.8730 hc         1 0ZL       0.052700
     49 HD11        33.5290    11.2740    -0.9730 hc         1 0ZL       0.036033
     50 HD12        32.3650    12.5950    -1.0520 hc         1 0ZL       0.036033
     51 HD13        32.5220    11.6440     0.4250 hc         1 0ZL       0.036033
     52 HD21        31.4140    11.5690    -3.1330 hc         1 0ZL       0.036033
     53 HD22        32.4300    10.1280    -3.0650 hc         1 0ZL       0.036033
     54 HD23        30.6730     9.9790    -3.1180 hc         1 0ZL       0.036033
     55 H1          31.9840     6.4140    -2.0640 hn         1 0ZL       0.328500
     56 HA1         32.0290     4.6330     0.2850 h1         1 0ZL       0.089700
     57 HB2         30.7670     3.6350    -1.5330 hc         1 0ZL       0.059700
     58 HB3         32.0380     3.9800    -2.6910 hc         1 0ZL       0.059700
     59 HG1         33.5470     2.3840    -1.5710 hc         1 0ZL       0.050700
     60 HD14        32.7610     2.4790     0.7760 hc         1 0ZL       0.035033
     61 HD15        31.1930     1.8270     0.2980 hc         1 0ZL       0.035033
     62 HD16        32.6440     0.8340     0.1790 hc         1 0ZL       0.035033
     63 HD24        30.8290     1.1750    -2.2350 hc         1 0ZL       0.035033
     64 HD25        32.0640     1.6280    -3.4110 hc         1 0ZL       0.035033
     65 HD26        32.3780     0.3320    -2.2570 hc         1 0ZL       0.035033
     66 H11         36.3300     5.4800    -0.3870 h1         1 0ZL       0.086700
     67 HN2         33.9430     4.8290     1.2200 hn         1 0ZL       0.330500
     68 H2          37.7090     4.0460     0.9600 h1         1 0ZL       0.045700
     69 HO2         36.7390     2.7130     2.5000 ho         1 0ZL       0.409000
     70 H3          35.3890     2.4450    -0.1860 h1         1 0ZL       0.042700
     71 HO3         36.0990     3.8570    -1.7780 ho         1 0ZL       0.433000
     72 H411        38.3570     1.8330     0.0860 hc         1 0ZL       0.039200
     73 H421        37.0740     1.1250     1.0510 hc         1 0ZL       0.039200
     74 H5          37.3830     0.7630    -1.9490 hc         1 0ZL       0.066700
     75 H61         35.4460    -0.5480     0.0190 hc         1 0ZL       0.031533
     76 H62         34.9960     0.5590    -1.2760 hc         1 0ZL       0.031533
     77 H63         35.6560    -1.0220    -1.6650 hc         1 0ZL       0.031533
     78 H71         38.0950    -1.5390    -1.3560 hc         1 0ZL       0.031533
     79 H72         39.1790    -0.3510    -0.6360 hc         1 0ZL       0.031533
     80 H73         37.9630    -1.1520     0.3580 hc         1 0ZL       0.031533
     81 H7'1        35.6730     5.9450     2.5430 hc         1 0ZL       0.053200
     82 H7'2        37.2390     6.2680     1.8240 hc         1 0ZL       0.053200
     83 H8          34.6410     7.5070     0.8190 hc         1 0ZL       0.048700
     84 H2'1        37.5570     8.2270     0.3200 hc         1 0ZL       0.041200
     85 H2'2        36.4830     7.4940    -0.8580 hc         1 0ZL       0.041200
     86 H6'1        35.0690     8.1970     3.1440 hc         1 0ZL       0.041200
     87 H6'2        36.7050     8.6710     2.7230 hc         1 0ZL       0.041200
     88 H3'1        36.6500     9.9310    -1.2290 hc         1 0ZL       0.037700
     89 H3'2        35.0110     9.4570    -0.8310 hc         1 0ZL       0.037700
     90 H5'1        34.1360     9.8890     1.6020 hc         1 0ZL       0.037700
     91 H5'2        35.2130    10.6500     2.7590 hc         1 0ZL       0.037700
     92 H4'1        37.0300    10.7070     1.0850 hc         1 0ZL       0.038200
     93 H4'2        35.6020    11.4880     0.4310 hc         1 0ZL       0.038200
@<TRIPOS>BOND
     1     1     2 1   
     2     1    39 1   
     3     1    40 1   
     4     1    41 1   
     5     2     3 1   
     6     2    42 1   
     7     2    43 1   
     8     3     4 1   
     9     4     5 2   
    10     4     6 1   
    11     6     7 1   
    12     6    44 1   
    13     7     8 1   
    14     7    10 1   
    15     7    45 1   
    16     8     9 2   
    17     8    14 1   
    18    10    11 1   
    19    10    46 1   
    20    10    47 1   
    21    11    12 1   
    22    11    13 1   
    23    11    48 1   
    24    12    49 1   
    25    12    50 1   
    26    12    51 1   
    27    13    52 1   
    28    13    53 1   
    29    13    54 1   
    30    14    15 1   
    31    14    55 1   
    32    15    16 1   
    33    15    18 1   
    34    15    56 1   
    35    16    17 2   
    36    16    23 1   
    37    18    19 1   
    38    18    57 1   
    39    18    58 1   
    40    19    20 1   
    41    19    21 1   
    42    19    59 1   
    43    20    60 1   
    44    20    61 1   
    45    20    62 1   
    46    21    63 1   
    47    21    64 1   
    48    21    65 1   
    49    22    23 1   
    50    22    24 1   
    51    22    32 1   
    52    22    66 1   
    53    23    67 1   
    54    24    25 1   
    55    24    26 1   
    56    24    68 1   
    57    25    69 1   
    58    26    27 1   
    59    26    28 1   
    60    26    70 1   
    61    27    71 1   
    62    28    29 1   
    63    28    72 1   
    64    28    73 1   
    65    29    30 1   
    66    29    31 1   
    67    29    74 1   
    68    30    75 1   
    69    30    76 1   
    70    30    77 1   
    71    31    78 1   
    72    31    79 1   
    73    31    80 1   
    74    32    33 1   
    75    32    81 1   
    76    32    82 1   
    77    33    34 1   
    78    33    35 1   
    79    33    83 1   
    80    34    36 1   
    81    34    84 1   
    82    34    85 1   
    83    35    37 1   
    84    35    86 1   
    85    35    87 1   
    86    36    38 1   
    87    36    88 1   
    88    36    89 1   
    89    37    38 1   
    90    37    90 1   
    91    37    91 1   
    92    38    92 1   
    93    38    93 1   
@<TRIPOS>SUBSTRUCTURE
     1 0ZL         1 TEMP              0 ****  ****    0 ROOT
