@<TRIPOS>MOLECULE
0ZM
   69    71     1     0     0
SMALL
abcg2


@<TRIPOS>ATOM
      1 C1          51.3060    17.4010    -9.0660 c6         1 0ZM       0.431300
      2 O1          51.3690    18.2490    -7.9490 os         1 0ZM      -0.629400
      3 C2          51.2660    15.9140    -8.6890 c6         1 0ZM       0.080300
      4 O2          51.4860    15.1200    -9.8340 oh         1 0ZM      -0.699000
      5 C3          49.9520    15.5930    -7.9700 c6         1 0ZM       0.134300
      6 O3          49.7980    14.2300    -7.6860 oh         1 0ZM      -0.731000
      7 C4          48.7630    16.0450    -8.8070 c6         1 0ZM       0.136300
      8 O4          47.5530    15.8900    -8.1040 oh         1 0ZM      -0.745000
      9 C5          48.9170    17.5230    -9.1660 c6         1 0ZM       0.177300
     10 O5          50.1720    17.7380    -9.8080 os         1 0ZM      -0.489000
     11 C6          47.8450    18.0120   -10.1170 c3         1 0ZM      -0.076100
     12 P           52.7540    18.4720    -7.0610 p5         1 0ZM       1.357700
     13 O1P         53.7760    17.4460    -7.4720 o          1 0ZM      -0.818000
     14 O2P         53.1270    19.9230    -7.0990 o          1 0ZM      -0.818000
     15 N           52.0410    18.1490    -5.5370 n7         1 0ZM      -0.939500
     16 CA          52.9250    18.0250    -4.3910 c3         1 0ZM       0.149500
     17 C           53.8200    16.7760    -4.4320 c          1 0ZM       0.572100
     18 O           55.0370    16.8450    -4.3020 o          1 0ZM      -0.654100
     19 CB          52.1000    18.0530    -3.1000 c3         1 0ZM      -0.072400
     20 CG          52.9000    18.0020    -1.7980 c3         1 0ZM      -0.062700
     21 CD1         53.7520    19.2500    -1.5990 c3         1 0ZM      -0.083100
     22 CD2         51.9560    17.8050    -0.6170 c3         1 0ZM      -0.083100
     23 N1          53.1570    15.6230    -4.5860 ns         1 0ZM      -0.466900
     24 CA1         53.7570    14.3460    -4.8760 c3         1 0ZM      -0.021300
     25 C7          52.7730    13.5010    -5.7140 c          1 0ZM       0.731000
     26 O6          51.5870    13.9200    -5.7620 o          1 0ZM      -0.735000
     27 CB1         54.2090    13.5980    -3.6060 c3         1 0ZM      -0.009200
     28 CG1         53.1480    13.3900    -2.5750 cc         1 0ZM      -0.071400
     29 CD11        52.9540    14.1660    -1.4670 cd         1 0ZM      -0.193100
     30 CD21        52.1470    12.3620    -2.5100 ca         1 0ZM      -0.077800
     31 NE1         51.9010    13.6990    -0.7320 na         1 0ZM      -0.240700
     32 CE2         51.3880    12.5920    -1.3400 ca         1 0ZM      -0.054200
     33 CE3         51.8290    11.2550    -3.3090 ca         1 0ZM      -0.013000
     34 CZ2         50.3320    11.7640    -0.9590 ca         1 0ZM      -0.160000
     35 CZ3         50.7860    10.4310    -2.9330 ca         1 0ZM      -0.172000
     36 CH2         50.0420    10.6850    -1.7690 ca         1 0ZM      -0.103000
     37 OXT         53.2310    12.4890    -6.2550 o          1 0ZM      -0.735000
     38 H1          52.1530    17.5740    -9.7390 h2         1 0ZM       0.071700
     39 H2          52.0990    15.7000    -8.0190 h1         1 0ZM       0.138700
     40 HO2         50.8420    15.3440   -10.5140 ho         1 0ZM       0.476000
     41 H3          49.9350    16.1910    -7.0450 h1         1 0ZM       0.046700
     42 HO3         50.4570    13.9950    -6.9900 ho         1 0ZM       0.534000
     43 H4          48.7360    15.4600    -9.7430 h1         1 0ZM       0.023700
     44 HO4         47.5480    14.9980    -7.7390 ho         1 0ZM       0.518000
     45 H5          48.8650    18.1070    -8.2380 h1         1 0ZM       0.068700
     46 H61         46.8590    17.9080    -9.6680 hc         1 0ZM       0.027033
     47 H62         47.9900    19.0660   -10.3550 hc         1 0ZM       0.027033
     48 H63         47.8570    17.4440   -11.0490 hc         1 0ZM       0.027033
     49 H           51.3270    17.4320    -5.5600 hn         1 0ZM       0.428000
     50 HA          53.6010    18.8840    -4.4020 h1         1 0ZM       0.078700
     51 HB2         51.4920    18.9630    -3.1100 hc         1 0ZM       0.041200
     52 HB3         51.3960    17.2130    -3.1200 hc         1 0ZM       0.041200
     53 HG          53.5710    17.1360    -1.8290 hc         1 0ZM       0.058700
     54 HD11        54.4970    19.3750    -2.3850 hc         1 0ZM       0.022033
     55 HD12        53.1290    20.1480    -1.5850 hc         1 0ZM       0.022033
     56 HD13        54.2900    19.2070    -0.6500 hc         1 0ZM       0.022033
     57 HD21        52.5070    17.7450     0.3230 hc         1 0ZM       0.022033
     58 HD22        51.2510    18.6370    -0.5340 hc         1 0ZM       0.022033
     59 HD23        51.3730    16.8880    -0.7200 hc         1 0ZM       0.022033
     60 H6          52.1610    15.6370    -4.7520 hn         1 0ZM       0.331500
     61 HA1         54.6510    14.5040    -5.4870 h1         1 0ZM       0.076700
     62 HB21        54.6410    12.6420    -3.9120 hc         1 0ZM       0.040200
     63 HB31        55.0260    14.1700    -3.1610 hc         1 0ZM       0.040200
     64 HD1         53.5110    15.0280    -1.1340 h4         1 0ZM       0.207000
     65 HE1         51.5780    14.0980     0.1330 hn         1 0ZM       0.328000
     66 HE3         52.3870    11.0510    -4.2130 ha         1 0ZM       0.153000
     67 HZ2         49.7620    11.9590    -0.0580 ha         1 0ZM       0.087000
     68 HZ3         50.5340     9.5740    -3.5460 ha         1 0ZM       0.097000
     69 HH2         49.2290    10.0220    -1.5020 ha         1 0ZM       0.082000
@<TRIPOS>BOND
     1     1     2 1   
     2     1     3 1   
     3     1    10 1   
     4     1    38 1   
     5     2    12 1   
     6     3     4 1   
     7     3     5 1   
     8     3    39 1   
     9     4    40 1   
    10     5     6 1   
    11     5     7 1   
    12     5    41 1   
    13     6    42 1   
    14     7     8 1   
    15     7     9 1   
    16     7    43 1   
    17     8    44 1   
    18     9    10 1   
    19     9    11 1   
    20     9    45 1   
    21    11    46 1   
    22    11    47 1   
    23    11    48 1   
    24    12    13 1   
    25    12    14 1   
    26    12    15 1   
    27    15    16 1   
    28    15    49 1   
    29    16    17 1   
    30    16    19 1   
    31    16    50 1   
    32    17    18 2   
    33    17    23 1   
    34    19    20 1   
    35    19    51 1   
    36    19    52 1   
    37    20    21 1   
    38    20    22 1   
    39    20    53 1   
    40    21    54 1   
    41    21    55 1   
    42    21    56 1   
    43    22    57 1   
    44    22    58 1   
    45    22    59 1   
    46    23    24 1   
    47    23    60 1   
    48    24    25 1   
    49    24    27 1   
    50    24    61 1   
    51    25    26 1   
    52    25    37 1   
    53    27    28 1   
    54    27    62 1   
    55    27    63 1   
    56    28    29 2   
    57    28    30 1   
    58    29    31 1   
    59    29    64 1   
    60    30    32 ar  
    61    30    33 ar  
    62    31    32 1   
    63    31    65 1   
    64    32    34 ar  
    65    33    35 ar  
    66    33    66 1   
    67    34    36 ar  
    68    34    67 1   
    69    35    36 ar  
    70    35    68 1   
    71    36    69 1   
@<TRIPOS>SUBSTRUCTURE
     1 0ZM         1 TEMP              0 ****  ****    0 ROOT
