@<TRIPOS>MOLECULE
0ZM
   69    71     1     0     0
SMALL
No Charge or Current Charge


@<TRIPOS>ATOM
      1 C1          51.1850    17.4240    -8.9850 c6         1 0ZM       0.431300
      2 O1          51.2780    18.1290    -7.7450 os         1 0ZM      -0.629400
      3 C2          51.2660    15.8560    -8.8300 c6         1 0ZM       0.080300
      4 O2          51.2270    15.2010   -10.1320 oh         1 0ZM      -0.699000
      5 C3          50.0650    15.4030    -7.9320 c6         1 0ZM       0.134300
      6 O3          50.0690    13.9810    -7.6790 oh         1 0ZM      -0.731000
      7 C4          48.7140    15.8500    -8.5700 c6         1 0ZM       0.136300
      8 O4          47.6280    15.4540    -7.7120 oh         1 0ZM      -0.745000
      9 C5          48.7470    17.3940    -8.8240 c6         1 0ZM       0.177300
     10 O5          49.9190    17.7640    -9.6000 os         1 0ZM      -0.489000
     11 C6          47.5150    17.8990    -9.6200 c3         1 0ZM      -0.076100
     12 P           52.7250    18.3370    -7.1030 p5         1 0ZM       1.357700
     13 O1P         53.6420    17.2020    -7.3500 o          1 0ZM      -0.818000
     14 O2P         53.3420    19.6710    -7.3220 o          1 0ZM      -0.818000
     15 N           52.2090    18.2130    -5.5640 n7         1 0ZM      -0.939500
     16 CA          53.1360    18.1100    -4.3960 c3         1 0ZM       0.149500
     17 C           54.0290    16.8120    -4.3820 c          1 0ZM       0.572100
     18 O           55.2460    16.8410    -4.2220 o          1 0ZM      -0.654100
     19 CB          52.3010    18.2380    -3.0920 c3         1 0ZM      -0.072400
     20 CG          53.1170    18.2690    -1.7670 c3         1 0ZM      -0.062700
     21 CD1         54.0880    19.4710    -1.6880 c3         1 0ZM      -0.083100
     22 CD2         52.1750    18.2480    -0.5420 c3         1 0ZM      -0.083100
     23 N1          53.3490    15.6250    -4.5860 ns         1 0ZM      -0.466900
     24 CA1         53.9650    14.2800    -4.6900 c3         1 0ZM      -0.021300
     25 C7          53.1820    13.3760    -5.6940 c          1 0ZM       0.731000
     26 O6          52.0430    13.6940    -6.0180 o          1 0ZM      -0.735000
     27 CB1         54.1350    13.6200    -3.2990 c3         1 0ZM      -0.009200
     28 CG1         52.8460    13.4410    -2.5360 cc         1 0ZM      -0.071400
     29 CD11        52.3130    14.3030    -1.5820 cd         1 0ZM      -0.193100
     30 CD21        51.9160    12.3480    -2.6360 ca         1 0ZM      -0.077800
     31 NE1         51.0800    13.7930    -1.1070 na         1 0ZM      -0.240700
     32 CE2         50.8840    12.6000    -1.7750 ca         1 0ZM      -0.054200
     33 CE3         51.9590    11.1800    -3.4140 ca         1 0ZM      -0.013000
     34 CZ2         49.8110    11.7090    -1.6350 ca         1 0ZM      -0.160000
     35 CZ3         50.8900    10.2660    -3.2940 ca         1 0ZM      -0.172000
     36 CH2         49.8190    10.5300    -2.4090 ca         1 0ZM      -0.103000
     37 OXT         53.7840    12.4450    -6.2120 o          1 0ZM      -0.735000
     38 H1          51.9960    17.7590    -9.6520 h2         1 0ZM       0.071700
     39 H2          52.1950    15.5880    -8.3100 h1         1 0ZM       0.138700
     40 HO2         50.4870    15.6150   -10.6320 ho         1 0ZM       0.476000
     41 H3          50.1610    15.9250    -6.9680 h1         1 0ZM       0.046700
     42 HO3         50.8450    13.8170    -7.0520 ho         1 0ZM       0.534000
     43 H4          48.6020    15.3470    -9.5420 h1         1 0ZM       0.023700
     44 HO4         47.9130    14.5730    -7.3670 ho         1 0ZM       0.518000
     45 H5          48.7720    17.9240    -7.8600 h1         1 0ZM       0.068700
     46 H61         46.5860    17.7170    -9.0670 hc         1 0ZM       0.027033
     47 H62         47.5820    18.9770    -9.8040 hc         1 0ZM       0.027033
     48 H63         47.4320    17.3940   -10.5890 hc         1 0ZM       0.027033
     49 H           51.6400    17.3830    -5.6520 hn         1 0ZM       0.428000
     50 HA          53.8350    18.9560    -4.4310 h1         1 0ZM       0.078700
     51 HB2         51.6960    19.1520    -3.1500 hc         1 0ZM       0.041200
     52 HB3         51.5920    17.4020    -3.0490 hc         1 0ZM       0.041200
     53 HG          53.7240    17.3560    -1.7160 hc         1 0ZM       0.058700
     54 HD11        54.8520    19.4180    -2.4720 hc         1 0ZM       0.022033
     55 HD12        53.5470    20.4180    -1.7950 hc         1 0ZM       0.022033
     56 HD13        54.6090    19.4820    -0.7230 hc         1 0ZM       0.022033
     57 HD21        52.7510    18.2030     0.3900 hc         1 0ZM       0.022033
     58 HD22        51.5490    19.1480    -0.5150 hc         1 0ZM       0.022033
     59 HD23        51.5140    17.3730    -0.5720 hc         1 0ZM       0.022033
     60 H6          52.3480    15.6810    -4.7130 hn         1 0ZM       0.331500
     61 HA1         54.9650    14.4030    -5.1260 h1         1 0ZM       0.076700
     62 HB21        54.6280    12.6480    -3.4230 hc         1 0ZM       0.040200
     63 HB31        54.8240    14.2310    -2.7030 hc         1 0ZM       0.040200
     64 HD1         52.7200    15.2390    -1.2130 h4         1 0ZM       0.207000
     65 HE1         50.4700    14.2100    -0.4110 hn         1 0ZM       0.328000
     66 HE3         52.7900    10.9800    -4.0860 ha         1 0ZM       0.153000
     67 HZ2         48.9960    11.9180    -0.9470 ha         1 0ZM       0.087000
     68 HZ3         50.8930     9.3520    -3.8840 ha         1 0ZM       0.097000
     69 HH2         49.0000     9.8190    -2.3220 ha         1 0ZM       0.082000
@<TRIPOS>BOND
     1     1     2 1   
     2     1     3 1   
     3     1    10 1   
     4     1    38 1   
     5     2    12 1   
     6     3     4 1   
     7     3     5 1   
     8     3    39 1   
     9     4    40 1   
    10     5     6 1   
    11     5     7 1   
    12     5    41 1   
    13     6    42 1   
    14     7     8 1   
    15     7     9 1   
    16     7    43 1   
    17     8    44 1   
    18     9    10 1   
    19     9    11 1   
    20     9    45 1   
    21    11    46 1   
    22    11    47 1   
    23    11    48 1   
    24    12    13 1   
    25    12    14 1   
    26    12    15 1   
    27    15    16 1   
    28    15    49 1   
    29    16    17 1   
    30    16    19 1   
    31    16    50 1   
    32    17    18 2   
    33    17    23 1   
    34    19    20 1   
    35    19    51 1   
    36    19    52 1   
    37    20    21 1   
    38    20    22 1   
    39    20    53 1   
    40    21    54 1   
    41    21    55 1   
    42    21    56 1   
    43    22    57 1   
    44    22    58 1   
    45    22    59 1   
    46    23    24 1   
    47    23    60 1   
    48    24    25 1   
    49    24    27 1   
    50    24    61 1   
    51    25    26 1   
    52    25    37 1   
    53    27    28 1   
    54    27    62 1   
    55    27    63 1   
    56    28    29 2   
    57    28    30 1   
    58    29    31 1   
    59    29    64 1   
    60    30    32 ar  
    61    30    33 ar  
    62    31    32 1   
    63    31    65 1   
    64    32    34 ar  
    65    33    35 ar  
    66    33    66 1   
    67    34    36 ar  
    68    34    67 1   
    69    35    36 ar  
    70    35    68 1   
    71    36    69 1   
@<TRIPOS>SUBSTRUCTURE
     1 0ZM         1 TEMP              0 ****  ****    0 ROOT
