@<TRIPOS>MOLECULE
0ZN
   66    68     1     0     0
SMALL
bcc


@<TRIPOS>ATOM
      1 CA          -1.9950     2.6590    -0.5130 c3         1 0ZN       0.064500
      2 CB1         -2.5700     1.4600     0.2720 c3         1 0ZN      -0.093400
      3 CG          -2.1640     0.0800    -0.2490 c3         1 0ZN      -0.047100
      4 CD          -2.7470    -1.0240     0.5850 ca         1 0ZN      -0.032300
      5 CE1         -3.8050    -1.8040     0.1250 ca         1 0ZN      -0.124500
      6 CE2         -2.2390    -1.2850     1.8570 ca         1 0ZN      -0.124500
      7 CZ1         -4.3330    -2.8270     0.9040 ca         1 0ZN      -0.150000
      8 CZ2         -2.7620    -2.3030     2.6400 ca         1 0ZN      -0.150000
      9 CH          -3.8100    -3.0830     2.1650 ca         1 0ZN      -0.173000
     10 CB2         -2.9670     3.8440    -0.3080 c          1 0ZN       0.936600
     11 OG1         -2.7670     4.5630     0.6920 o          1 0ZN      -0.845300
     12 OG2         -3.9010     3.9530    -1.1270 o          1 0ZN      -0.845300
     13 N           -0.6580     3.1070    -0.1680 n7         1 0ZN      -0.830200
     14 CA1          0.4860     2.2620    -0.4110 c3         1 0ZN       0.124500
     15 C            0.8280     1.3410     0.7660 c          1 0ZN       0.632100
     16 O            0.6150     1.6790     1.9250 o          1 0ZN      -0.627100
     17 CB           1.7070     3.1560    -0.7090 c3         1 0ZN      -0.066400
     18 CG1          2.9360     2.4880    -1.3290 c3         1 0ZN      -0.076700
     19 CD1          2.6340     1.9300    -2.7180 c3         1 0ZN      -0.077100
     20 CD2          4.0740     3.5020    -1.4100 c3         1 0ZN      -0.077100
     21 N1           1.3830     0.1690     0.4430 ns         1 0ZN      -0.540900
     22 CA2          1.8960    -0.7710     1.4100 c3         1 0ZN      -0.021300
     23 C1           3.1840    -0.2860     2.1220 c          1 0ZN       0.930600
     24 O1           3.8580     0.5980     1.5700 o          1 0ZN      -0.836800
     25 CB3          2.1620    -2.1170     0.7170 c3         1 0ZN      -0.016200
     26 CG2          0.9350    -2.7060     0.1010 cc         1 0ZN      -0.110400
     27 CD11        -0.0040    -3.4680     0.7370 cd         1 0ZN      -0.123100
     28 CD21         0.4330    -2.4910    -1.2240 ca         1 0ZN      -0.091800
     29 NE1         -1.0400    -3.7490    -0.1070 na         1 0ZN      -0.174400
     30 CE21        -0.8200    -3.1390    -1.3050 ca         1 0ZN      -0.048200
     31 CE3          0.9150    -1.8110    -2.3490 ca         1 0ZN      -0.075000
     32 CZ21        -1.6050    -3.0960    -2.4550 ca         1 0ZN      -0.152000
     33 CZ3          0.1390    -1.7600    -3.4900 ca         1 0ZN      -0.174000
     34 CH2         -1.1150    -2.3930    -3.5390 ca         1 0ZN      -0.123000
     35 OXT          3.4420    -0.8800     3.1890 o          1 0ZN      -0.836800
     36 HA2         -1.9940     2.3990    -1.5770 h1         1 0ZN       0.032700
     37 HB11        -2.2910     1.5610     1.3250 hc         1 0ZN       0.048200
     38 HB12        -3.6640     1.5080     0.2380 hc         1 0ZN       0.048200
     39 HG1         -2.4940    -0.0290    -1.2860 hc         1 0ZN       0.050200
     40 HG2         -1.0810    -0.0350    -0.2610 hc         1 0ZN       0.050200
     41 HE1         -4.2120    -1.6170    -0.8620 ha         1 0ZN       0.146500
     42 HE2         -1.4120    -0.6900     2.2310 ha         1 0ZN       0.146500
     43 HZ1         -5.1520    -3.4250     0.5240 ha         1 0ZN       0.113500
     44 HZ2         -2.3460    -2.4960     3.6210 ha         1 0ZN       0.113500
     45 HH          -4.2180    -3.8800     2.7740 ha         1 0ZN       0.105000
     46 H           -0.6500     3.4740     0.7750 hn         1 0ZN       0.403800
     47 HA           0.2720     1.6530    -1.2970 h1         1 0ZN       0.039700
     48 HB2          1.3590     3.9440    -1.3840 hc         1 0ZN       0.048200
     49 HB3          1.9990     3.6590     0.2200 hc         1 0ZN       0.048200
     50 HG           3.2680     1.6750    -0.6770 hc         1 0ZN       0.101700
     51 HD11         1.8530     1.1680    -2.7120 hc         1 0ZN       0.017700
     52 HD12         2.3000     2.7260    -3.3890 hc         1 0ZN       0.017700
     53 HD13         3.5210     1.4720    -3.1590 hc         1 0ZN       0.017700
     54 HD21         4.3430     3.8770    -0.4210 hc         1 0ZN       0.017700
     55 HD22         4.9700     3.0620    -1.8520 hc         1 0ZN       0.017700
     56 HD23         3.7900     4.3610    -2.0240 hc         1 0ZN       0.017700
     57 H1           1.5660    -0.0050    -0.5310 hn         1 0ZN       0.290500
     58 HA1          1.1240    -0.9370     2.1660 h1         1 0ZN       0.051700
     59 HB21         2.9430    -1.9830    -0.0410 hc         1 0ZN       0.048700
     60 HB31         2.5750    -2.7960     1.4640 hc         1 0ZN       0.048700
     61 HD1         -0.0140    -3.8280     1.7540 h4         1 0ZN       0.160000
     62 HE11        -1.9090    -4.1680     0.1820 hn         1 0ZN       0.293700
     63 HE3          1.8950    -1.3450    -2.3420 ha         1 0ZN       0.134000
     64 HZ21        -2.5660    -3.5920    -2.4980 ha         1 0ZN       0.117000
     65 HZ3          0.5010    -1.2320    -4.3630 ha         1 0ZN       0.117000
     66 HH2         -1.7040    -2.3370    -4.4460 ha         1 0ZN       0.111000
@<TRIPOS>BOND
     1     1     2 1   
     2     1    10 1   
     3     1    13 1   
     4     1    36 1   
     5     2     3 1   
     6     2    37 1   
     7     2    38 1   
     8     3     4 1   
     9     3    39 1   
    10     3    40 1   
    11     4     5 ar  
    12     4     6 ar  
    13     5     7 ar  
    14     5    41 1   
    15     6     8 ar  
    16     6    42 1   
    17     7     9 ar  
    18     7    43 1   
    19     8     9 ar  
    20     8    44 1   
    21     9    45 1   
    22    10    11 1   
    23    10    12 1   
    24    13    14 1   
    25    13    46 1   
    26    14    15 1   
    27    14    17 1   
    28    14    47 1   
    29    15    16 2   
    30    15    21 1   
    31    17    18 1   
    32    17    48 1   
    33    17    49 1   
    34    18    19 1   
    35    18    20 1   
    36    18    50 1   
    37    19    51 1   
    38    19    52 1   
    39    19    53 1   
    40    20    54 1   
    41    20    55 1   
    42    20    56 1   
    43    21    22 1   
    44    21    57 1   
    45    22    23 1   
    46    22    25 1   
    47    22    58 1   
    48    23    24 1   
    49    23    35 1   
    50    25    26 1   
    51    25    59 1   
    52    25    60 1   
    53    26    27 2   
    54    26    28 1   
    55    27    29 1   
    56    27    61 1   
    57    28    30 ar  
    58    28    31 ar  
    59    29    30 1   
    60    29    62 1   
    61    30    32 ar  
    62    31    33 ar  
    63    31    63 1   
    64    32    34 ar  
    65    32    64 1   
    66    33    34 ar  
    67    33    65 1   
    68    34    66 1   
@<TRIPOS>SUBSTRUCTURE
     1 0ZN         1 TEMP              0 ****  ****    0 ROOT
