@<TRIPOS>MOLECULE
0ZN
   66    68     1     0     0
SMALL
No Charge or Current Charge


@<TRIPOS>ATOM
      1 CA          -2.0570     2.6570    -0.5340 c3         1 0ZN       0.064500
      2 CB1         -2.4820     1.4740     0.3850 c3         1 0ZN      -0.093400
      3 CG          -2.2500     0.0710    -0.2210 c3         1 0ZN      -0.047100
      4 CD          -2.7690    -1.0390     0.6850 ca         1 0ZN      -0.032300
      5 CE1         -3.8580    -1.8380     0.2840 ca         1 0ZN      -0.106500
      6 CE2         -2.1590    -1.2790     1.9330 ca         1 0ZN      -0.106500
      7 CZ1         -4.3300    -2.8660     1.1190 ca         1 0ZN      -0.132000
      8 CZ2         -2.6320    -2.3070     2.7680 ca         1 0ZN      -0.132000
      9 CH          -3.7160    -3.1010     2.3610 ca         1 0ZN      -0.155000
     10 CB2         -3.1840     3.7770    -0.5340 c          1 0ZN       0.726000
     11 OG1         -3.3950     4.4040     0.5000 o          1 0ZN      -0.740000
     12 OG2         -3.7760     4.0100    -1.5810 o          1 0ZN      -0.740000
     13 N           -0.6890     3.1830    -0.1700 n7         1 0ZN      -0.885400
     14 CA1          0.5210     2.3340    -0.4300 c3         1 0ZN       0.124500
     15 C            0.9310     1.4090     0.7770 c          1 0ZN       0.565100
     16 O            0.8410     1.7650     1.9480 o          1 0ZN      -0.627100
     17 CB           1.6840     3.2960    -0.8030 c3         1 0ZN      -0.066400
     18 CG1          3.0000     2.6260    -1.2950 c3         1 0ZN      -0.076700
     19 CD1          2.8100     1.8370    -2.6130 c3         1 0ZN      -0.077100
     20 CD2          4.1260     3.6740    -1.4510 c3         1 0ZN      -0.077100
     21 N1           1.3840     0.1500     0.4310 ns         1 0ZN      -0.473900
     22 CA2          1.8600    -0.8790     1.3890 c3         1 0ZN      -0.021300
     23 C1           3.1670    -0.4280     2.1200 c          1 0ZN       0.720000
     24 O1           4.1080    -0.0190     1.4520 o          1 0ZN      -0.731500
     25 CB3          2.0670    -2.2520     0.7030 c3         1 0ZN      -0.016200
     26 CG2          0.8230    -2.7960     0.0500 cc         1 0ZN      -0.110400
     27 CD11        -0.1340    -3.6250     0.6280 cd         1 0ZN      -0.173100
     28 CD21         0.3440    -2.5080    -1.2740 ca         1 0ZN      -0.091800
     29 NE1         -1.1930    -3.8400    -0.2860 na         1 0ZN      -0.224700
     30 CE21        -0.8620    -3.1320    -1.4250 ca         1 0ZN      -0.048200
     31 CE3          0.9180    -1.7480    -2.3030 ca         1 0ZN      -0.057000
     32 CZ21        -1.6040    -3.0130    -2.6090 ca         1 0ZN      -0.134000
     33 CZ3          0.1940    -1.6100    -3.5060 ca         1 0ZN      -0.156000
     34 CH2         -1.0660    -2.2370    -3.6570 ca         1 0ZN      -0.105000
     35 OXT          3.1980    -0.4960     3.3420 o          1 0ZN      -0.731500
     36 HA2         -2.0250     2.2830    -1.5670 h1         1 0ZN       0.032700
     37 HB11        -1.9890     1.5560     1.3610 hc         1 0ZN       0.048200
     38 HB12        -3.5570     1.5580     0.5880 hc         1 0ZN       0.048200
     39 HG1         -2.7410     0.0200    -1.2010 hc         1 0ZN       0.050200
     40 HG2         -1.1840    -0.0820    -0.4150 hc         1 0ZN       0.050200
     41 HE1         -4.3380    -1.6650    -0.6770 ha         1 0ZN       0.128500
     42 HE2         -1.3140    -0.6740     2.2500 ha         1 0ZN       0.128500
     43 HZ1         -5.1700    -3.4800     0.8030 ha         1 0ZN       0.095500
     44 HZ2         -2.1540    -2.4880     3.7280 ha         1 0ZN       0.095500
     45 HH          -4.0810    -3.8970     3.0070 ha         1 0ZN       0.087000
     46 H           -0.6880     3.4770     0.8170 hn         1 0ZN       0.459000
     47 HA           0.3220     1.6890    -1.2960 h1         1 0ZN       0.039700
     48 HB2          1.3380     3.9850    -1.5840 hc         1 0ZN       0.048200
     49 HB3          1.9110     3.9160     0.0730 hc         1 0ZN       0.048200
     50 HG           3.3360     1.9180    -0.5280 hc         1 0ZN       0.101700
     51 HD11         2.0720     1.0380    -2.4960 hc         1 0ZN       0.017700
     52 HD12         2.4720     2.5000    -3.4190 hc         1 0ZN       0.017700
     53 HD13         3.7540     1.3740    -2.9250 hc         1 0ZN       0.017700
     54 HD21         4.3060     4.1940    -0.5020 hc         1 0ZN       0.017700
     55 HD22         5.0640     3.1940    -1.7540 hc         1 0ZN       0.017700
     56 HD23         3.8630     4.4220    -2.2080 hc         1 0ZN       0.017700
     57 H1           1.3910    -0.0770    -0.5550 hn         1 0ZN       0.290500
     58 HA1          1.0850    -1.0000     2.1560 h1         1 0ZN       0.051700
     59 HB21         2.8690    -2.1690    -0.0400 hc         1 0ZN       0.048700
     60 HB31         2.4230    -2.9690     1.4540 hc         1 0ZN       0.048700
     61 HD1         -0.1550    -4.0430     1.6300 h4         1 0ZN       0.210000
     62 HE11        -2.0500    -4.3570    -0.1180 hn         1 0ZN       0.344000
     63 HE3          1.8930    -1.2840    -2.1830 ha         1 0ZN       0.116000
     64 HZ21        -2.5670    -3.5050    -2.7170 ha         1 0ZN       0.099000
     65 HZ3          0.6080    -1.0220    -4.3220 ha         1 0ZN       0.099000
     66 HH2         -1.6180    -2.1260    -4.5870 ha         1 0ZN       0.093000
@<TRIPOS>BOND
     1     1     2 1   
     2     1    10 1   
     3     1    13 1   
     4     1    36 1   
     5     2     3 1   
     6     2    37 1   
     7     2    38 1   
     8     3     4 1   
     9     3    39 1   
    10     3    40 1   
    11     4     5 ar  
    12     4     6 ar  
    13     5     7 ar  
    14     5    41 1   
    15     6     8 ar  
    16     6    42 1   
    17     7     9 ar  
    18     7    43 1   
    19     8     9 ar  
    20     8    44 1   
    21     9    45 1   
    22    10    11 1   
    23    10    12 1   
    24    13    14 1   
    25    13    46 1   
    26    14    15 1   
    27    14    17 1   
    28    14    47 1   
    29    15    16 2   
    30    15    21 1   
    31    17    18 1   
    32    17    48 1   
    33    17    49 1   
    34    18    19 1   
    35    18    20 1   
    36    18    50 1   
    37    19    51 1   
    38    19    52 1   
    39    19    53 1   
    40    20    54 1   
    41    20    55 1   
    42    20    56 1   
    43    21    22 1   
    44    21    57 1   
    45    22    23 1   
    46    22    25 1   
    47    22    58 1   
    48    23    24 1   
    49    23    35 1   
    50    25    26 1   
    51    25    59 1   
    52    25    60 1   
    53    26    27 2   
    54    26    28 1   
    55    27    29 1   
    56    27    61 1   
    57    28    30 ar  
    58    28    31 ar  
    59    29    30 1   
    60    29    62 1   
    61    30    32 ar  
    62    31    33 ar  
    63    31    63 1   
    64    32    34 ar  
    65    32    64 1   
    66    33    34 ar  
    67    33    65 1   
    68    34    66 1   
@<TRIPOS>SUBSTRUCTURE
     1 0ZN         1 TEMP              0 ****  ****    0 ROOT
