@<TRIPOS>MOLECULE
0ZP
  128   133     1     0     0
SMALL
No Charge or Current Charge


@<TRIPOS>ATOM
      1 C            2.9900     1.3770     1.4860 c          1 0ZP       0.597100
      2 O            2.8990     1.5780     2.6890 o          1 0ZP      -0.625100
      3 CA           4.3370     1.2450     0.7590 c3         1 0ZP      -0.141700
      4 CB1          5.2130     2.5100     0.9610 c3         1 0ZP      -0.017100
      5 C1A          6.4860     2.4960     0.1080 ca         1 0ZP      -0.093800
      6 C2A          7.7050     2.1830     0.7450 ca         1 0ZP      -0.098500
      7 C3A          8.9030     2.1240     0.0190 ca         1 0ZP      -0.116000
      8 C4A          8.9000     2.3760    -1.3600 ca         1 0ZP      -0.084000
      9 C11          7.6970     2.6940    -2.0160 ca         1 0ZP      -0.035500
     10 C5A          7.7150     2.9430    -3.4020 ca         1 0ZP      -0.086000
     11 C6A          6.5280     3.2630    -4.0790 ca         1 0ZP      -0.103500
     12 C7A          5.3200     3.3400    -3.3710 ca         1 0ZP      -0.094000
     13 C8A          5.2940     3.0940    -1.9870 ca         1 0ZP      -0.121500
     14 C12          6.4810     2.7620    -1.2900 ca         1 0ZP      -0.028500
     15 CB2          5.0390    -0.0730     1.1840 c3         1 0ZP      -0.017100
     16 C1B          4.1890    -1.3010     0.8380 ca         1 0ZP      -0.093800
     17 C2B          3.4440    -1.9040     1.8720 ca         1 0ZP      -0.098500
     18 C3B          2.6100    -3.0020     1.6140 ca         1 0ZP      -0.116000
     19 C4B          2.5080    -3.5120     0.3130 ca         1 0ZP      -0.084000
     20 C13          3.2410    -2.9270    -0.7350 ca         1 0ZP      -0.035500
     21 C5B          3.1190    -3.4510    -2.0360 ca         1 0ZP      -0.086000
     22 C6B          3.8380    -2.8820    -3.0980 ca         1 0ZP      -0.103500
     23 C7B          4.6840    -1.7880    -2.8620 ca         1 0ZP      -0.094000
     24 C8B          4.8120    -1.2600    -1.5660 ca         1 0ZP      -0.121500
     25 C14          4.0900    -1.8190    -0.4830 ca         1 0ZP      -0.028500
     26 N            1.8860     1.2240     0.6780 ns         1 0ZP      -0.508900
     27 CA1          0.4900     1.1270     1.1590 c3         1 0ZP       0.020700
     28 C1          -0.2190    -0.0490     0.4370 c          1 0ZP       0.590100
     29 O1           0.1440    -0.4770    -0.6520 o          1 0ZP      -0.571100
     30 CB          -0.2720     2.4590     0.9490 c3         1 0ZP      -0.039100
     31 CG           0.3700     3.6270     1.6510 cc         1 0ZP      -0.090300
     32 ND1          1.1840     4.5740     1.0180 na         1 0ZP      -0.108700
     33 CD2          0.2900     3.9700     2.9870 cd         1 0ZP      -0.150000
     34 CE1          1.6180     5.4930     1.9600 cc         1 0ZP      -0.052300
     35 NE2          1.0590     5.1030     3.1480 na         1 0ZP      -0.056000
     36 N1          -1.2860    -0.5920     1.1180 ns         1 0ZP      -0.498900
     37 CA2         -2.0500    -1.7680     0.6810 c3         1 0ZP       0.076700
     38 CB3         -1.3770    -3.0490     1.2490 c3         1 0ZP      -0.082400
     39 CG1         -1.9300    -4.4230     0.7550 c6         1 0ZP      -0.057700
     40 CD1         -1.1920    -5.5910     1.4720 c6         1 0ZP      -0.072400
     41 CD21        -1.8220    -4.5890    -0.7900 c6         1 0ZP      -0.072400
     42 CE11        -1.7120    -6.9720     1.0050 c6         1 0ZP      -0.073400
     43 CE2         -2.3350    -5.9740    -1.2560 c6         1 0ZP      -0.073400
     44 CZ          -1.5950    -7.1220    -0.5300 c6         1 0ZP      -0.075400
     45 CH          -3.5600    -1.6140     1.0430 c3         1 0ZP       0.153300
     46 OH          -3.6960    -1.4110     2.4570 oh         1 0ZP      -0.647000
     47 CM          -4.2250    -0.4350     0.2780 c3         1 0ZP      -0.097400
     48 CA21        -5.7770    -0.3120     0.4190 c3         1 0ZP      -0.130700
     49 CB21        -6.3220     0.2330     1.7840 c3         1 0ZP      -0.068400
     50 CG2         -5.5950     1.4250     2.4860 c3         1 0ZP      -0.052700
     51 CD3         -5.5680     2.7310     1.6630 c3         1 0ZP      -0.095600
     52 CD4         -6.2190     1.6840     3.8770 c3         1 0ZP      -0.095600
     53 C2          -6.4090     0.4010    -0.8050 c          1 0ZP       0.601100
     54 O2          -6.1090     1.5310    -1.1610 o          1 0ZP      -0.626100
     55 N2          -7.3320    -0.3540    -1.4990 ns         1 0ZP      -0.501900
     56 CA3         -8.1050     0.1130    -2.6550 c3         1 0ZP       0.102000
     57 CB4         -9.5490     0.5460    -2.2860 c3         1 0ZP      -0.079700
     58 CG11       -10.3590     0.8620    -3.5740 c3         1 0ZP      -0.071400
     59 CG21        -9.5690     1.7190    -1.2700 c3         1 0ZP      -0.087100
     60 CD11       -11.8660     1.1160    -3.3510 c3         1 0ZP      -0.090100
     61 HA           4.1220     1.1580    -0.3110 hc         1 0ZP       0.073700
     62 HB11         4.6200     3.4070     0.7420 hc         1 0ZP       0.058200
     63 HB12         5.4690     2.5950     2.0250 hc         1 0ZP       0.058200
     64 H2A          7.7250     1.9750     1.8130 ha         1 0ZP       0.114500
     65 H3A          9.8340     1.8780     0.5240 ha         1 0ZP       0.119000
     66 H4A          9.8330     2.3240    -1.9170 ha         1 0ZP       0.121000
     67 H5A          8.6490     2.8880    -3.9570 ha         1 0ZP       0.120000
     68 H6A          6.5460     3.4550    -5.1490 ha         1 0ZP       0.122000
     69 H7A          4.4000     3.5920    -3.8940 ha         1 0ZP       0.116500
     70 H8A          4.3400     3.1700    -1.4770 ha         1 0ZP       0.103000
     71 HB21         6.0250    -0.1520     0.7120 hc         1 0ZP       0.058200
     72 HB22         5.2420    -0.0380     2.2620 hc         1 0ZP       0.058200
     73 H2B          3.5010    -1.5120     2.8860 ha         1 0ZP       0.114500
     74 H3B          2.0380    -3.4540     2.4210 ha         1 0ZP       0.119000
     75 H4B          1.8560    -4.3610     0.1190 ha         1 0ZP       0.121000
     76 H5B          2.4650    -4.2990    -2.2270 ha         1 0ZP       0.120000
     77 H6B          3.7410    -3.2890    -4.1020 ha         1 0ZP       0.122000
     78 H7B          5.2430    -1.3470    -3.6840 ha         1 0ZP       0.116500
     79 H8B          5.4780    -0.4140    -1.4270 ha         1 0ZP       0.103000
     80 H            2.0680     0.9920    -0.2920 hn         1 0ZP       0.354500
     81 HA1          0.4960     0.8870     2.2300 h1         1 0ZP       0.087700
     82 HB2         -0.3500     2.6620    -0.1270 hc         1 0ZP       0.095200
     83 HB3         -1.3020     2.3440     1.3090 hc         1 0ZP       0.095200
     84 HD1          1.4190     4.5890     0.0290 hn         1 0ZP       0.412000
     85 HD2         -0.2370     3.4910     3.8070 h4         1 0ZP       0.208000
     86 HE1          2.2640     6.3510     1.7910 h5         1 0ZP       0.232000
     87 HE2          1.1930     5.5860     4.0340 hn         1 0ZP       0.411000
     88 H1          -1.5250    -0.1860     2.0150 hn         1 0ZP       0.311500
     89 HA2         -1.9840    -1.8150    -0.4140 h1         1 0ZP       0.092700
     90 HB23        -0.3090    -3.0000     1.0080 hc         1 0ZP       0.046700
     91 HB31        -1.4320    -3.0090     2.3440 hc         1 0ZP       0.046700
     92 HG          -2.9890    -4.4690     1.0430 hc         1 0ZP       0.057700
     93 HD12        -0.1120    -5.5240     1.2810 hc         1 0ZP       0.036200
     94 HD13        -1.3200    -5.5030     2.5600 hc         1 0ZP       0.036200
     95 HD23        -2.4050    -3.8110    -1.3010 hc         1 0ZP       0.036200
     96 HD22        -0.7780    -4.4570    -1.1080 hc         1 0ZP       0.036200
     97 HE12        -1.1450    -7.7710     1.5020 hc         1 0ZP       0.043450
     98 HE13        -2.7600    -7.0970     1.3120 hc         1 0ZP       0.043450
     99 HE23        -3.4150    -6.0510    -1.0650 hc         1 0ZP       0.043450
    100 HE22        -2.2030    -6.0740    -2.3420 hc         1 0ZP       0.043450
    101 HZ2         -0.5360    -7.1240    -0.8230 hc         1 0ZP       0.043700
    102 HZ3         -2.0090    -8.0910    -0.8430 hc         1 0ZP       0.043700
    103 HH          -4.0800    -2.5340     0.7410 h1         1 0ZP       0.088700
    104 HO          -4.5460    -0.9450     2.5930 ho         1 0ZP       0.430000
    105 HM1         -3.7430     0.5130     0.5430 hc         1 0ZP       0.058700
    106 HM2         -4.0040    -0.5840    -0.7870 hc         1 0ZP       0.058700
    107 HA21        -6.1630    -1.3380     0.3720 hc         1 0ZP       0.063700
    108 HB24        -7.3770     0.5030     1.6460 hc         1 0ZP       0.053200
    109 HB25        -6.3440    -0.6070     2.4900 hc         1 0ZP       0.053200
    110 HG2         -4.5530     1.1400     2.6680 hc         1 0ZP       0.021700
    111 HD31        -6.5730     2.9970     1.3130 hc         1 0ZP       0.036867
    112 HD32        -5.1870     3.5630     2.2670 hc         1 0ZP       0.036867
    113 HD33        -4.9040     2.6360     0.7980 hc         1 0ZP       0.036867
    114 HD41        -6.1830     0.7800     4.4970 hc         1 0ZP       0.036867
    115 HD42        -5.6730     2.4740     4.4080 hc         1 0ZP       0.036867
    116 HD43        -7.2670     1.9950     3.7840 hc         1 0ZP       0.036867
    117 HN1         -7.5160    -1.2860    -1.1460 hn         1 0ZP       0.315500
    118 HA11        -7.5820     0.9480    -3.1390 h1         1 0ZP       0.052200
    119 HA22        -8.1500    -0.7100    -3.3810 h1         1 0ZP       0.052200
    120 HB         -10.0290    -0.3140    -1.8020 hc         1 0ZP       0.049700
    121 HG11        -9.9210     1.7330    -4.0780 hc         1 0ZP       0.041200
    122 HG12       -10.2600     0.0190    -4.2700 hc         1 0ZP       0.041200
    123 HG21       -10.5940     1.9720    -0.9740 hc         1 0ZP       0.035033
    124 HG22        -9.0290     1.4570    -0.3530 hc         1 0ZP       0.035033
    125 HG23        -9.1040     2.6140    -1.6990 hc         1 0ZP       0.035033
    126 HD11       -12.3240     0.2840    -2.8030 hc         1 0ZP       0.036367
    127 HD21       -12.0350     2.0420    -2.7880 hc         1 0ZP       0.036367
    128 HD3        -12.3800     1.2140    -4.3140 hc         1 0ZP       0.036367
@<TRIPOS>BOND
     1     1     2 2   
     2     1     3 1   
     3     1    26 1   
     4     3     4 1   
     5     3    15 1   
     6     3    61 1   
     7     4     5 1   
     8     4    62 1   
     9     4    63 1   
    10     5     6 ar  
    11     5    14 ar  
    12     6     7 ar  
    13     6    64 1   
    14     7     8 ar  
    15     7    65 1   
    16     8     9 ar  
    17     8    66 1   
    18     9    10 ar  
    19     9    14 ar  
    20    10    11 ar  
    21    10    67 1   
    22    11    12 ar  
    23    11    68 1   
    24    12    13 ar  
    25    12    69 1   
    26    13    14 ar  
    27    13    70 1   
    28    15    16 1   
    29    15    71 1   
    30    15    72 1   
    31    16    17 ar  
    32    16    25 ar  
    33    17    18 ar  
    34    17    73 1   
    35    18    19 ar  
    36    18    74 1   
    37    19    20 ar  
    38    19    75 1   
    39    20    21 ar  
    40    20    25 ar  
    41    21    22 ar  
    42    21    76 1   
    43    22    23 ar  
    44    22    77 1   
    45    23    24 ar  
    46    23    78 1   
    47    24    25 ar  
    48    24    79 1   
    49    26    27 1   
    50    26    80 1   
    51    27    28 1   
    52    27    30 1   
    53    27    81 1   
    54    28    29 2   
    55    28    36 1   
    56    30    31 1   
    57    30    82 1   
    58    30    83 1   
    59    31    32 1   
    60    31    33 2   
    61    32    34 2   
    62    32    84 1   
    63    33    35 1   
    64    33    85 1   
    65    34    35 1   
    66    34    86 1   
    67    35    87 1   
    68    36    37 1   
    69    36    88 1   
    70    37    38 1   
    71    37    45 1   
    72    37    89 1   
    73    38    39 1   
    74    38    90 1   
    75    38    91 1   
    76    39    40 1   
    77    39    41 1   
    78    39    92 1   
    79    40    42 1   
    80    40    93 1   
    81    40    94 1   
    82    41    43 1   
    83    41    95 1   
    84    41    96 1   
    85    42    44 1   
    86    42    97 1   
    87    42    98 1   
    88    43    44 1   
    89    43    99 1   
    90    43   100 1   
    91    44   101 1   
    92    44   102 1   
    93    45    46 1   
    94    45    47 1   
    95    45   103 1   
    96    46   104 1   
    97    47    48 1   
    98    47   105 1   
    99    47   106 1   
   100    48    49 1   
   101    48    53 1   
   102    48   107 1   
   103    49    50 1   
   104    49   108 1   
   105    49   109 1   
   106    50    51 1   
   107    50    52 1   
   108    50   110 1   
   109    51   111 1   
   110    51   112 1   
   111    51   113 1   
   112    52   114 1   
   113    52   115 1   
   114    52   116 1   
   115    53    54 2   
   116    53    55 1   
   117    55    56 1   
   118    55   117 1   
   119    56    57 1   
   120    56   118 1   
   121    56   119 1   
   122    57    58 1   
   123    57    59 1   
   124    57   120 1   
   125    58    60 1   
   126    58   121 1   
   127    58   122 1   
   128    59   123 1   
   129    59   124 1   
   130    59   125 1   
   131    60   126 1   
   132    60   127 1   
   133    60   128 1   
@<TRIPOS>SUBSTRUCTURE
     1 0ZP         1 TEMP              0 ****  ****    0 ROOT
