@<TRIPOS>MOLECULE
0ZP
  128   133     1     0     0
SMALL
bcc


@<TRIPOS>ATOM
      1 C            2.6960     1.5350     1.3270 c          1 0ZP       0.664100
      2 O            2.8410     1.8120     2.5070 o          1 0ZP      -0.625100
      3 CA           3.8480     1.5650     0.3410 c3         1 0ZP      -0.141700
      4 CB1          4.6670     2.8560     0.4820 c3         1 0ZP      -0.017100
      5 C1A          5.8110     2.9150    -0.4910 ca         1 0ZP      -0.093800
      6 C2A          7.0950     2.7170    -0.0470 ca         1 0ZP      -0.116500
      7 C3A          8.1910     2.6900    -0.9320 ca         1 0ZP      -0.134000
      8 C4A          7.9940     2.8560    -2.2730 ca         1 0ZP      -0.102000
      9 C11          6.6920     3.0740    -2.7800 ca         1 0ZP      -0.035500
     10 C5A          6.4700     3.2510    -4.1670 ca         1 0ZP      -0.104000
     11 C6A          5.2120     3.4720    -4.6550 ca         1 0ZP      -0.121500
     12 C7A          4.1180     3.5410    -3.7710 ca         1 0ZP      -0.112000
     13 C8A          4.3020     3.3710    -2.4250 ca         1 0ZP      -0.139500
     14 C12          5.5880     3.1190    -1.8850 ca         1 0ZP      -0.028500
     15 CB2          4.7000     0.3030     0.5830 c3         1 0ZP      -0.017100
     16 C1B          3.8850    -0.9550     0.4770 ca         1 0ZP      -0.093800
     17 C2B          3.4780    -1.6020     1.6170 ca         1 0ZP      -0.116500
     18 C3B          2.6250    -2.7220     1.5670 ca         1 0ZP      -0.134000
     19 C4B          2.1810    -3.1910     0.3640 ca         1 0ZP      -0.102000
     20 C13          2.5820    -2.5670    -0.8390 ca         1 0ZP      -0.035500
     21 C5B          2.1330    -3.0430    -2.0920 ca         1 0ZP      -0.104000
     22 C6B          2.5210    -2.4370    -3.2550 ca         1 0ZP      -0.121500
     23 C7B          3.3850    -1.3240    -3.2120 ca         1 0ZP      -0.112000
     24 C8B          3.8360    -0.8420    -2.0130 ca         1 0ZP      -0.139500
     25 C14          3.4490    -1.4420    -0.7890 ca         1 0ZP      -0.028500
     26 N            1.5190     1.1390     0.8020 ns         1 0ZP      -0.575900
     27 CA1          0.4030     0.7040     1.5980 c3         1 0ZP       0.020700
     28 C1          -0.2470    -0.4850     0.8890 c          1 0ZP       0.657100
     29 O1          -0.1840    -0.5870    -0.3240 o          1 0ZP      -0.571100
     30 CB          -0.6620     1.8100     1.7620 c3         1 0ZP      -0.039100
     31 CG          -0.0790     3.0330     2.3620 cc         1 0ZP      -0.039600
     32 ND1          0.5920     3.9820     1.6310 na         1 0ZP      -0.109100
     33 CD2          0.0180     3.4290     3.6560 cd         1 0ZP      -0.117300
     34 CE1          1.0860     4.9120     2.4310 cc         1 0ZP      -0.019600
     35 NE2          0.7430     4.5900     3.6640 na         1 0ZP      -0.107100
     36 N1          -0.9230    -1.3170     1.6930 ns         1 0ZP      -0.565900
     37 CA2         -1.6850    -2.4590     1.2140 c3         1 0ZP       0.076700
     38 CB3         -1.3270    -3.6820     2.0570 c3         1 0ZP      -0.082400
     39 CG1         -1.9420    -5.0070     1.6050 c6         1 0ZP      -0.057700
     40 CD1         -1.5310    -6.1170     2.5740 c6         1 0ZP      -0.072400
     41 CD21        -1.5470    -5.3800     0.1750 c6         1 0ZP      -0.072400
     42 CE11        -2.0860    -7.4770     2.1640 c6         1 0ZP      -0.073400
     43 CE2         -2.0930    -6.7440    -0.2370 c6         1 0ZP      -0.073400
     44 CZ          -1.6740    -7.8350     0.7410 c6         1 0ZP      -0.075400
     45 CH          -3.1960    -2.1520     1.1920 c3         1 0ZP       0.130100
     46 OH          -3.7360    -2.1350     2.4980 oh         1 0ZP      -0.584800
     47 CM          -3.4930    -0.8910     0.3840 c3         1 0ZP      -0.097400
     48 CA21        -4.9610    -0.6730     0.0180 c3         1 0ZP      -0.130700
     49 CB21        -5.8830    -0.3300     1.2070 c3         1 0ZP      -0.068400
     50 CG2         -5.4580     0.8020     2.1450 c3         1 0ZP      -0.052700
     51 CD3         -5.3400     2.1640     1.4680 c3         1 0ZP      -0.095600
     52 CD4         -6.4460     0.8760     3.3070 c3         1 0ZP      -0.095600
     53 C2          -5.0740     0.3470    -1.1170 c          1 0ZP       0.668100
     54 O2          -4.1300     1.0190    -1.5130 o          1 0ZP      -0.626100
     55 N2          -6.2960     0.4510    -1.6650 ns         1 0ZP      -0.568900
     56 CA3         -6.6230     1.4000    -2.7060 c3         1 0ZP       0.102000
     57 CB4         -8.1270     1.6480    -2.8000 c3         1 0ZP      -0.079700
     58 CG11        -8.3930     2.6140    -3.9580 c3         1 0ZP      -0.071400
     59 CG21        -8.6870     2.1690    -1.4800 c3         1 0ZP      -0.087100
     60 CD11        -9.8640     2.7700    -4.3170 c3         1 0ZP      -0.090100
     61 HA           3.4450     1.5130    -0.6740 hc         1 0ZP       0.073700
     62 HB11         4.0050     3.7180     0.3520 hc         1 0ZP       0.058200
     63 HB12         5.0570     2.9200     1.4990 hc         1 0ZP       0.058200
     64 H2A          7.2700     2.5630     1.0110 ha         1 0ZP       0.132500
     65 H3A          9.1870     2.5280    -0.5410 ha         1 0ZP       0.137000
     66 H4A          8.8280     2.8260    -2.9630 ha         1 0ZP       0.139000
     67 H5A          7.3180     3.2100    -4.8390 ha         1 0ZP       0.138000
     68 H6A          5.0550     3.6010    -5.7180 ha         1 0ZP       0.140000
     69 H7A          3.1260     3.7330    -4.1580 ha         1 0ZP       0.134500
     70 H8A          3.4460     3.4500    -1.7680 ha         1 0ZP       0.121000
     71 HB21         5.5320     0.2950    -0.1240 hc         1 0ZP       0.058200
     72 HB22         5.1460     0.3660     1.5790 hc         1 0ZP       0.058200
     73 H2B          3.8030    -1.2320     2.5820 ha         1 0ZP       0.132500
     74 H3B          2.3190    -3.1990     2.4890 ha         1 0ZP       0.137000
     75 H4B          1.5100    -4.0410     0.3170 ha         1 0ZP       0.139000
     76 H5B          1.4700    -3.9010    -2.1190 ha         1 0ZP       0.138000
     77 H6B          2.1710    -2.8090    -4.2090 ha         1 0ZP       0.140000
     78 H7B          3.6920    -0.8500    -4.1350 ha         1 0ZP       0.134500
     79 H8B          4.5050     0.0090    -2.0100 ha         1 0ZP       0.121000
     80 H            1.4910     0.8530    -0.1670 hn         1 0ZP       0.354500
     81 HA1          0.7620     0.4150     2.5890 h1         1 0ZP       0.087700
     82 HB2         -1.1030     2.0430     0.7890 hc         1 0ZP       0.095200
     83 HB3         -1.4660     1.4520     2.4050 hc         1 0ZP       0.095200
     84 HD1          0.6860     3.9900     0.6250 hn         1 0ZP       0.361700
     85 HD2         -0.3560     2.9760     4.5570 h4         1 0ZP       0.226000
     86 HE1          1.6440     5.7810     2.1300 h5         1 0ZP       0.250000
     87 HE2          0.9790     5.1320     4.4840 hn         1 0ZP       0.360700
     88 H1          -0.8280    -1.1980     2.6900 hn         1 0ZP       0.311500
     89 HA2         -1.3700    -2.6270     0.1830 h1         1 0ZP       0.092700
     90 HB23        -0.2380    -3.7840     2.0460 hc         1 0ZP       0.046700
     91 HB31        -1.6060    -3.5000     3.0990 hc         1 0ZP       0.046700
     92 HG          -3.0360    -4.9260     1.6460 hc         1 0ZP       0.057700
     93 HD12        -0.4360    -6.1690     2.6110 hc         1 0ZP       0.036200
     94 HD13        -1.8620    -5.8640     3.5850 hc         1 0ZP       0.036200
     95 HD23        -1.8960    -4.6220    -0.5320 hc         1 0ZP       0.036200
     96 HD22        -0.4520    -5.3930     0.1000 hc         1 0ZP       0.036200
     97 HE12        -1.7480    -8.2450     2.8640 hc         1 0ZP       0.043450
     98 HE13        -3.1800    -7.4560     2.2300 hc         1 0ZP       0.043450
     99 HE23        -3.1870    -6.6970    -0.2800 hc         1 0ZP       0.043450
    100 HE22        -1.7560    -6.9870    -1.2480 hc         1 0ZP       0.043450
    101 HZ2         -0.5870    -7.9620     0.6990 hc         1 0ZP       0.043700
    102 HZ3         -2.1100    -8.7930     0.4480 hc         1 0ZP       0.043700
    103 HH          -3.6830    -2.9950     0.6910 h1         1 0ZP       0.088700
    104 HO          -3.4230    -1.3480     2.9560 ho         1 0ZP       0.391000
    105 HM1         -3.1060    -0.0090     0.9050 hc         1 0ZP       0.058700
    106 HM2         -2.9140    -0.9540    -0.5380 hc         1 0ZP       0.058700
    107 HA21        -5.3450    -1.6150    -0.3940 hc         1 0ZP       0.063700
    108 HB24        -6.8860    -0.1020     0.8310 hc         1 0ZP       0.053200
    109 HB25        -5.9960    -1.2350     1.8050 hc         1 0ZP       0.053200
    110 HG2         -4.4770     0.5590     2.5660 hc         1 0ZP       0.021700
    111 HD31        -6.2680     2.4330     0.9570 hc         1 0ZP       0.036867
    112 HD32        -5.1400     2.9390     2.2100 hc         1 0ZP       0.036867
    113 HD33        -4.5320     2.2000     0.7380 hc         1 0ZP       0.036867
    114 HD41        -6.5220    -0.0800     3.8280 hc         1 0ZP       0.036867
    115 HD42        -6.1440     1.6290     4.0370 hc         1 0ZP       0.036867
    116 HD43        -7.4450     1.1410     2.9530 hc         1 0ZP       0.036867
    117 HN1         -7.0150    -0.1910    -1.3720 hn         1 0ZP       0.315500
    118 HA11        -6.1160     2.3440    -2.4900 h1         1 0ZP       0.052200
    119 HA22        -6.2490     1.0530    -3.6750 h1         1 0ZP       0.052200
    120 HB          -8.6160     0.6950    -3.0400 hc         1 0ZP       0.049700
    121 HG11        -7.9680     3.5920    -3.7100 hc         1 0ZP       0.041200
    122 HG12        -7.8530     2.2620    -4.8420 hc         1 0ZP       0.041200
    123 HG21        -9.7520     2.3890    -1.5530 hc         1 0ZP       0.035033
    124 HG22        -8.5680     1.4480    -0.6710 hc         1 0ZP       0.035033
    125 HG23        -8.1750     3.0870    -1.1830 hc         1 0ZP       0.035033
    126 HD11       -10.3090     1.8090    -4.5830 hc         1 0ZP       0.036367
    127 HD21       -10.4480     3.1890    -3.4970 hc         1 0ZP       0.036367
    128 HD3         -9.9860     3.4360    -5.1730 hc         1 0ZP       0.036367
@<TRIPOS>BOND
     1     1     2 2   
     2     1     3 1   
     3     1    26 1   
     4     3     4 1   
     5     3    15 1   
     6     3    61 1   
     7     4     5 1   
     8     4    62 1   
     9     4    63 1   
    10     5     6 ar  
    11     5    14 ar  
    12     6     7 ar  
    13     6    64 1   
    14     7     8 ar  
    15     7    65 1   
    16     8     9 ar  
    17     8    66 1   
    18     9    10 ar  
    19     9    14 ar  
    20    10    11 ar  
    21    10    67 1   
    22    11    12 ar  
    23    11    68 1   
    24    12    13 ar  
    25    12    69 1   
    26    13    14 ar  
    27    13    70 1   
    28    15    16 1   
    29    15    71 1   
    30    15    72 1   
    31    16    17 ar  
    32    16    25 ar  
    33    17    18 ar  
    34    17    73 1   
    35    18    19 ar  
    36    18    74 1   
    37    19    20 ar  
    38    19    75 1   
    39    20    21 ar  
    40    20    25 ar  
    41    21    22 ar  
    42    21    76 1   
    43    22    23 ar  
    44    22    77 1   
    45    23    24 ar  
    46    23    78 1   
    47    24    25 ar  
    48    24    79 1   
    49    26    27 1   
    50    26    80 1   
    51    27    28 1   
    52    27    30 1   
    53    27    81 1   
    54    28    29 2   
    55    28    36 1   
    56    30    31 1   
    57    30    82 1   
    58    30    83 1   
    59    31    32 1   
    60    31    33 2   
    61    32    34 2   
    62    32    84 1   
    63    33    35 1   
    64    33    85 1   
    65    34    35 1   
    66    34    86 1   
    67    35    87 1   
    68    36    37 1   
    69    36    88 1   
    70    37    38 1   
    71    37    45 1   
    72    37    89 1   
    73    38    39 1   
    74    38    90 1   
    75    38    91 1   
    76    39    40 1   
    77    39    41 1   
    78    39    92 1   
    79    40    42 1   
    80    40    93 1   
    81    40    94 1   
    82    41    43 1   
    83    41    95 1   
    84    41    96 1   
    85    42    44 1   
    86    42    97 1   
    87    42    98 1   
    88    43    44 1   
    89    43    99 1   
    90    43   100 1   
    91    44   101 1   
    92    44   102 1   
    93    45    46 1   
    94    45    47 1   
    95    45   103 1   
    96    46   104 1   
    97    47    48 1   
    98    47   105 1   
    99    47   106 1   
   100    48    49 1   
   101    48    53 1   
   102    48   107 1   
   103    49    50 1   
   104    49   108 1   
   105    49   109 1   
   106    50    51 1   
   107    50    52 1   
   108    50   110 1   
   109    51   111 1   
   110    51   112 1   
   111    51   113 1   
   112    52   114 1   
   113    52   115 1   
   114    52   116 1   
   115    53    54 2   
   116    53    55 1   
   117    55    56 1   
   118    55   117 1   
   119    56    57 1   
   120    56   118 1   
   121    56   119 1   
   122    57    58 1   
   123    57    59 1   
   124    57   120 1   
   125    58    60 1   
   126    58   121 1   
   127    58   122 1   
   128    59   123 1   
   129    59   124 1   
   130    59   125 1   
   131    60   126 1   
   132    60   127 1   
   133    60   128 1   
@<TRIPOS>SUBSTRUCTURE
     1 0ZP         1 TEMP              0 ****  ****    0 ROOT
