@<TRIPOS>MOLECULE
0ZQ
   98   100     1     0     0
SMALL
No Charge or Current Charge


@<TRIPOS>ATOM
      1 O1          -6.3440    -0.2870     1.3690 o          1 0ZQ      -0.551000
      2 C           -6.1140     0.3690     0.3660 c          1 0ZQ       0.653100
      3 O2          -6.6580     1.5750     0.0210 os         1 0ZQ      -0.478100
      4 CT          -7.6940     2.2110     0.8060 c3         1 0ZQ       0.224000
      5 C1          -7.1490     2.5520     2.2170 c3         1 0ZQ      -0.107767
      6 C2          -8.0110     3.5120     0.0360 c3         1 0ZQ      -0.107767
      7 C3          -8.9480     1.2980     0.8400 c3         1 0ZQ      -0.107767
      8 N           -5.2590    -0.0050    -0.6310 ns         1 0ZQ      -0.497900
      9 CA          -4.5990    -1.3090    -0.7220 c3         1 0ZQ       0.126700
     10 C4          -3.1020    -1.1530    -1.0740 c3         1 0ZQ      -0.090400
     11 CB          -5.3490    -2.2270    -1.7180 c3         1 0ZQ      -0.057100
     12 CG          -6.8310    -2.3780    -1.3850 ca         1 0ZQ      -0.076300
     13 CD1         -7.7990    -1.6240    -2.0790 ca         1 0ZQ      -0.098000
     14 CD2         -7.2420    -3.2540    -0.3620 ca         1 0ZQ      -0.098000
     15 CE1         -9.1610    -1.7440    -1.7510 ca         1 0ZQ      -0.110500
     16 CE2         -8.6040    -3.3740    -0.0340 ca         1 0ZQ      -0.110500
     17 CZ          -9.5640    -2.6180    -0.7280 ca         1 0ZQ      -0.114000
     18 CM          -2.3120    -0.3320    -0.0350 c3         1 0ZQ       0.167800
     19 N1          -0.8840    -0.3020    -0.4030 n7         1 0ZQ      -0.870400
     20 CA1          0.0280     0.4730     0.5080 c3         1 0ZQ       0.103500
     21 C5           1.3430     0.9620    -0.2160 c          1 0ZQ       0.604100
     22 O            1.3630     1.1860    -1.4220 o          1 0ZQ      -0.597100
     23 CB1          0.2570    -0.2560     1.8730 c3         1 0ZQ      -0.024100
     24 CG1          1.0020    -1.5950     1.8060 ca         1 0ZQ      -0.072300
     25 CD11         2.2750    -1.7270     2.3980 ca         1 0ZQ      -0.091500
     26 CD21         0.4040    -2.7290     1.2170 ca         1 0ZQ      -0.091500
     27 CE11         2.9470    -2.9610     2.3780 ca         1 0ZQ      -0.117500
     28 CE21         1.0760    -3.9630     1.1970 ca         1 0ZQ      -0.117500
     29 CZ1          2.3490    -4.0800     1.7770 ca         1 0ZQ      -0.116000
     30 N2           2.4750     1.1380     0.5610 ns         1 0ZQ      -0.486900
     31 CA2          3.7480     1.7320     0.0830 c3         1 0ZQ       0.031700
     32 C6           4.9720     0.9730     0.6730 c          1 0ZQ       0.590100
     33 O3           4.8990     0.2280     1.6420 o          1 0ZQ      -0.628100
     34 CB2          3.8210     3.2490     0.4160 c3         1 0ZQ      -0.061400
     35 CG2          2.7000     4.1110    -0.2220 c3         1 0ZQ      -0.208400
     36 CD           2.9450     5.6010     0.0700 c          1 0ZQ       0.718000
     37 OE1          3.6410     6.2340    -0.7090 o          1 0ZQ      -0.738500
     38 OE2          2.4820     6.0700     1.0990 o          1 0ZQ      -0.738500
     39 N3           6.1660     1.2120     0.0220 ns         1 0ZQ      -0.482900
     40 CA3          7.4410     0.5080     0.2930 c3         1 0ZQ       0.037700
     41 C7           8.6300     1.5150     0.3280 c          1 0ZQ       0.587100
     42 O4           8.5220     2.7030     0.0670 o          1 0ZQ      -0.570100
     43 CB3          7.6760    -0.6390    -0.7270 c3         1 0ZQ      -0.042100
     44 CG3          6.4960    -1.5990    -0.8430 ca         1 0ZQ      -0.079300
     45 CD12         5.4920    -1.3840    -1.8090 ca         1 0ZQ      -0.103500
     46 CD22         6.3970    -2.7080     0.0200 ca         1 0ZQ      -0.103500
     47 CE12         4.3980    -2.2610    -1.9040 ca         1 0ZQ      -0.106500
     48 CE22         5.3070    -3.5900    -0.0820 ca         1 0ZQ      -0.106500
     49 CZ2          4.3060    -3.3650    -1.0410 ca         1 0ZQ      -0.113000
     50 N4           9.8420     1.0110     0.6610 nt         1 0ZQ      -0.611000
     51 H11         -6.1690     3.0390     2.1490 hc         1 0ZQ       0.048033
     52 H12         -7.8320     3.2370     2.7340 hc         1 0ZQ       0.048033
     53 H13         -7.0500     1.6600     2.8460 hc         1 0ZQ       0.048033
     54 H21         -8.3540     3.2890    -0.9820 hc         1 0ZQ       0.048033
     55 H22         -8.7990     4.0830     0.5420 hc         1 0ZQ       0.048033
     56 H23         -7.1220     4.1500    -0.0350 hc         1 0ZQ       0.048033
     57 H31         -8.8000     0.4200     1.4770 hc         1 0ZQ       0.048033
     58 H32         -9.8090     1.8470     1.2400 hc         1 0ZQ       0.048033
     59 H33         -9.2060     0.9530    -0.1680 hc         1 0ZQ       0.048033
     60 H           -5.1810     0.6410    -1.4050 hn         1 0ZQ       0.319500
     61 HA          -4.6510    -1.7900     0.2650 h1         1 0ZQ       0.082700
     62 HC1         -2.6520    -2.1500    -1.1510 hc         1 0ZQ       0.052200
     63 HC2         -3.0060    -0.6810    -2.0600 hc         1 0ZQ       0.052200
     64 HB1         -5.2300    -1.8280    -2.7330 hc         1 0ZQ       0.052200
     65 HB2         -4.8700    -3.2140    -1.7240 hc         1 0ZQ       0.052200
     66 HD1         -7.4960    -0.9380    -2.8660 ha         1 0ZQ       0.110500
     67 HD2         -6.5040    -3.8370     0.1860 ha         1 0ZQ       0.110500
     68 HE1         -9.9020    -1.1560    -2.2870 ha         1 0ZQ       0.108000
     69 HE2         -8.9140    -4.0500     0.7590 ha         1 0ZQ       0.108000
     70 HZ         -10.6170    -2.7100    -0.4730 ha         1 0ZQ       0.106000
     71 HM1         -2.7160     0.6880     0.0100 h1         1 0ZQ       0.033200
     72 HM2         -2.4500    -0.7920     0.9530 h1         1 0ZQ       0.033200
     73 H1          -0.8080     0.1240    -1.3370 hn         1 0ZQ       0.443000
     74 HA1         -0.4760     1.4150     0.7630 h1         1 0ZQ       0.040700
     75 HB21         0.7750     0.4300     2.5530 hc         1 0ZQ       0.048200
     76 HB3         -0.7150    -0.4210     2.3500 hc         1 0ZQ       0.048200
     77 HD11         2.7460    -0.8770     2.8840 ha         1 0ZQ       0.118000
     78 HD21        -0.5880    -2.6600     0.7800 ha         1 0ZQ       0.118000
     79 HE11         3.9320    -3.0490     2.8320 ha         1 0ZQ       0.106500
     80 HE21         0.6070    -4.8290     0.7370 ha         1 0ZQ       0.106500
     81 HZ1          2.8690    -5.0350     1.7640 ha         1 0ZQ       0.099000
     82 H2           2.4100     0.8710     1.5350 hn         1 0ZQ       0.322500
     83 HA2          3.8090     1.6100    -1.0060 h1         1 0ZQ       0.079700
     84 HB22         3.7980     3.3780     1.5060 hc         1 0ZQ       0.061700
     85 HB31         4.7900     3.6380     0.0800 hc         1 0ZQ       0.061700
     86 HG2          2.7520     3.9220    -1.3020 hc         1 0ZQ       0.022200
     87 HG3          1.7590     3.7880     0.2400 hc         1 0ZQ       0.022200
     88 H3           6.1450     1.8820    -0.7390 hn         1 0ZQ       0.327500
     89 HA3          7.3900     0.0630     1.2950 h1         1 0ZQ       0.069700
     90 HB23         7.8910    -0.1990    -1.7090 hc         1 0ZQ       0.059200
     91 HB32         8.5770    -1.1970    -0.4470 hc         1 0ZQ       0.059200
     92 HD12         5.5550    -0.5310    -2.4820 ha         1 0ZQ       0.111000
     93 HD22         7.1620    -2.8850     0.7720 ha         1 0ZQ       0.111000
     94 HE12         3.6220    -2.0840    -2.6460 ha         1 0ZQ       0.112500
     95 HE23         5.2370    -4.4440     0.5880 ha         1 0ZQ       0.112500
     96 HZ2          3.4590    -4.0440    -1.1140 ha         1 0ZQ       0.109000
     97 HN1          9.9430     0.0310     0.8850 hn         1 0ZQ       0.308500
     98 HN2         10.6400     1.6280     0.6940 hn         1 0ZQ       0.308500
@<TRIPOS>BOND
     1     1     2 2   
     2     2     3 1   
     3     2     8 1   
     4     3     4 1   
     5     4     5 1   
     6     4     6 1   
     7     4     7 1   
     8     5    51 1   
     9     5    52 1   
    10     5    53 1   
    11     6    54 1   
    12     6    55 1   
    13     6    56 1   
    14     7    57 1   
    15     7    58 1   
    16     7    59 1   
    17     8     9 1   
    18     8    60 1   
    19     9    10 1   
    20     9    11 1   
    21     9    61 1   
    22    10    18 1   
    23    10    62 1   
    24    10    63 1   
    25    11    12 1   
    26    11    64 1   
    27    11    65 1   
    28    12    13 ar  
    29    12    14 ar  
    30    13    15 ar  
    31    13    66 1   
    32    14    16 ar  
    33    14    67 1   
    34    15    17 ar  
    35    15    68 1   
    36    16    17 ar  
    37    16    69 1   
    38    17    70 1   
    39    18    19 1   
    40    18    71 1   
    41    18    72 1   
    42    19    20 1   
    43    19    73 1   
    44    20    21 1   
    45    20    23 1   
    46    20    74 1   
    47    21    22 2   
    48    21    30 1   
    49    23    24 1   
    50    23    75 1   
    51    23    76 1   
    52    24    25 ar  
    53    24    26 ar  
    54    25    27 ar  
    55    25    77 1   
    56    26    28 ar  
    57    26    78 1   
    58    27    29 ar  
    59    27    79 1   
    60    28    29 ar  
    61    28    80 1   
    62    29    81 1   
    63    30    31 1   
    64    30    82 1   
    65    31    32 1   
    66    31    34 1   
    67    31    83 1   
    68    32    33 2   
    69    32    39 1   
    70    34    35 1   
    71    34    84 1   
    72    34    85 1   
    73    35    36 1   
    74    35    86 1   
    75    35    87 1   
    76    36    37 1   
    77    36    38 1   
    78    39    40 1   
    79    39    88 1   
    80    40    41 1   
    81    40    43 1   
    82    40    89 1   
    83    41    42 2   
    84    41    50 1   
    85    43    44 1   
    86    43    90 1   
    87    43    91 1   
    88    44    45 ar  
    89    44    46 ar  
    90    45    47 ar  
    91    45    92 1   
    92    46    48 ar  
    93    46    93 1   
    94    47    49 ar  
    95    47    94 1   
    96    48    49 ar  
    97    48    95 1   
    98    49    96 1   
    99    50    97 1   
   100    50    98 1   
@<TRIPOS>SUBSTRUCTURE
     1 0ZQ         1 TEMP              0 ****  ****    0 ROOT
