@<TRIPOS>MOLECULE
0ZQ
   98   100     1     0     0
SMALL
bcc


@<TRIPOS>ATOM
      1 O1          -6.2000    -0.1170     1.6500 o          1 0ZQ      -0.600000
      2 C           -6.0930     0.5670     0.6530 c          1 0ZQ       0.769100
      3 O2          -6.6710     1.7560     0.4640 os         1 0ZQ      -0.454900
      4 CT          -7.6120     2.3210     1.4110 c3         1 0ZQ       0.200800
      5 C1          -6.9350     2.6410     2.7390 c3         1 0ZQ      -0.107767
      6 C2          -8.0480     3.6160     0.7350 c3         1 0ZQ      -0.107767
      7 C3          -8.8200     1.4070     1.5930 c3         1 0ZQ      -0.107767
      8 N           -5.3370     0.2490    -0.4210 ns         1 0ZQ      -0.564900
      9 CA          -4.7580    -1.0600    -0.6250 c3         1 0ZQ       0.126700
     10 C4          -3.3280    -0.9490    -1.1430 c3         1 0ZQ      -0.090400
     11 CB          -5.6220    -1.9000    -1.5800 c3         1 0ZQ      -0.057100
     12 CG          -7.0430    -2.0220    -1.1130 ca         1 0ZQ      -0.076300
     13 CD1         -8.0400    -1.1970    -1.6260 ca         1 0ZQ      -0.116000
     14 CD2         -7.3880    -2.9350    -0.1180 ca         1 0ZQ      -0.116000
     15 CE1         -9.3460    -1.2770    -1.1590 ca         1 0ZQ      -0.128500
     16 CE2         -8.6900    -3.0200     0.3530 ca         1 0ZQ      -0.128500
     17 CZ          -9.6750    -2.1880    -0.1650 ca         1 0ZQ      -0.132000
     18 CM          -2.3810    -0.2720    -0.1650 c3         1 0ZQ       0.167800
     19 N1          -1.0210    -0.3220    -0.6620 n7         1 0ZQ      -0.815200
     20 CA1         -0.0590     0.3130     0.2030 c3         1 0ZQ       0.103500
     21 C5           1.1950     0.6700    -0.5920 c          1 0ZQ       0.671100
     22 O            1.3720     0.3010    -1.7400 o          1 0ZQ      -0.597100
     23 CB1          0.3300    -0.6060     1.3840 c3         1 0ZQ      -0.024100
     24 CG1          1.1570    -1.7880     0.9680 ca         1 0ZQ      -0.072300
     25 CD11         2.5370    -1.7880     1.1610 ca         1 0ZQ      -0.109500
     26 CD21         0.5730    -2.8930     0.3510 ca         1 0ZQ      -0.109500
     27 CE11         3.3210    -2.8490     0.7310 ca         1 0ZQ      -0.135500
     28 CE21         1.3510    -3.9630    -0.0680 ca         1 0ZQ      -0.135500
     29 CZ1          2.7290    -3.9410     0.1130 ca         1 0ZQ      -0.134000
     30 N2           2.0780     1.4200     0.0910 ns         1 0ZQ      -0.553900
     31 CA2          3.3970     1.7580    -0.3850 c3         1 0ZQ       0.031700
     32 C6           4.4170     1.3080     0.6500 c          1 0ZQ       0.657100
     33 O3           4.2650     1.5380     1.8420 o          1 0ZQ      -0.628100
     34 CB2          3.5580     3.2620    -0.6340 c3         1 0ZQ      -0.061400
     35 CG2          2.6700     3.7520    -1.7650 c3         1 0ZQ      -0.208400
     36 CD           2.7350     5.2630    -2.0490 c          1 0ZQ       0.928600
     37 OE1          3.5040     5.9560    -1.3560 o          1 0ZQ      -0.843800
     38 OE2          1.9940     5.6720    -2.9680 o          1 0ZQ      -0.843800
     39 N3           5.4940     0.6730     0.1680 ns         1 0ZQ      -0.549900
     40 CA3          6.6270     0.3890     1.0060 c3         1 0ZQ       0.037700
     41 C7           7.2640     1.6930     1.4970 c          1 0ZQ       0.654100
     42 O4           7.2330     2.7110     0.8270 o          1 0ZQ      -0.570100
     43 CB3          7.6700    -0.4260     0.2280 c3         1 0ZQ      -0.042100
     44 CG3          7.1970    -1.8160    -0.0950 ca         1 0ZQ      -0.079300
     45 CD12         6.6450    -2.1240    -1.3350 ca         1 0ZQ      -0.121500
     46 CD22         7.2990    -2.8270     0.8590 ca         1 0ZQ      -0.121500
     47 CE12         6.2070    -3.4110    -1.6190 ca         1 0ZQ      -0.124500
     48 CE22         6.8670    -4.1160     0.5790 ca         1 0ZQ      -0.124500
     49 CZ2          6.3210    -4.4120    -0.6640 ca         1 0ZQ      -0.131000
     50 N4           7.8850     1.5910     2.6780 nt         1 0ZQ      -0.678000
     51 H11         -6.0560     3.2710     2.5870 hc         1 0ZQ       0.048033
     52 H12         -7.6310     3.1950     3.3710 hc         1 0ZQ       0.048033
     53 H13         -6.6320     1.7470     3.2790 hc         1 0ZQ       0.048033
     54 H21         -8.5300     3.4210    -0.2250 hc         1 0ZQ       0.048033
     55 H22         -8.7640     4.1390     1.3690 hc         1 0ZQ       0.048033
     56 H23         -7.2020     4.2840     0.5660 hc         1 0ZQ       0.048033
     57 H31         -8.5710     0.4890     2.1190 hc         1 0ZQ       0.048033
     58 H32         -9.5830     1.9330     2.1680 hc         1 0ZQ       0.048033
     59 H33         -9.2520     1.1360     0.6280 hc         1 0ZQ       0.048033
     60 H           -5.3650     0.8700    -1.2150 hn         1 0ZQ       0.319500
     61 HA          -4.7370    -1.5580     0.3470 h1         1 0ZQ       0.082700
     62 HC1         -2.9550    -1.9540    -1.3560 hc         1 0ZQ       0.052200
     63 HC2         -3.3280    -0.4100    -2.0980 hc         1 0ZQ       0.052200
     64 HB1         -5.5940    -1.4470    -2.5760 hc         1 0ZQ       0.052200
     65 HB2         -5.1660    -2.8890    -1.6730 hc         1 0ZQ       0.052200
     66 HD1         -7.7970    -0.4850    -2.4070 ha         1 0ZQ       0.128500
     67 HD2         -6.6270    -3.5880     0.2960 ha         1 0ZQ       0.128500
     68 HE1        -10.1050    -0.6260    -1.5730 ha         1 0ZQ       0.126000
     69 HE2         -8.9360    -3.7380     1.1250 ha         1 0ZQ       0.126000
     70 HZ         -10.6910    -2.2530     0.2000 ha         1 0ZQ       0.124000
     71 HM1         -2.7190     0.7560     0.0390 h1         1 0ZQ       0.033200
     72 HM2         -2.4280    -0.8020     0.7910 h1         1 0ZQ       0.033200
     73 H1          -0.9810     0.0940    -1.5840 hn         1 0ZQ       0.387800
     74 HA1         -0.4500     1.2490     0.6390 h1         1 0ZQ       0.040700
     75 HB21         0.8720    -0.0180     2.1280 hc         1 0ZQ       0.048200
     76 HB3         -0.5870    -0.9360     1.8770 hc         1 0ZQ       0.048200
     77 HD11         3.0050    -0.9460     1.6560 ha         1 0ZQ       0.136000
     78 HD21        -0.4980    -2.9130     0.1960 ha         1 0ZQ       0.136000
     79 HE11         4.3940    -2.8220     0.8740 ha         1 0ZQ       0.124500
     80 HE21         0.8810    -4.8160    -0.5420 ha         1 0ZQ       0.124500
     81 HZ1          3.3360    -4.7720    -0.2230 ha         1 0ZQ       0.117000
     82 H2           1.8470     1.7120     1.0290 hn         1 0ZQ       0.322500
     83 HA2          3.5550     1.2230    -1.3230 h1         1 0ZQ       0.079700
     84 HB22         3.3330     3.7990     0.2900 hc         1 0ZQ       0.061700
     85 HB31         4.6070     3.4650    -0.8610 hc         1 0ZQ       0.061700
     86 HG2          2.9240     3.2200    -2.6880 hc         1 0ZQ       0.022200
     87 HG3          1.6270     3.4890    -1.5600 hc         1 0ZQ       0.022200
     88 H3           5.5920     0.5750    -0.8300 hn         1 0ZQ       0.327500
     89 HA3          6.2960    -0.1990     1.8680 h1         1 0ZQ       0.069700
     90 HB23         7.9370     0.1130    -0.6850 hc         1 0ZQ       0.059200
     91 HB32         8.5790    -0.4800     0.8310 hc         1 0ZQ       0.059200
     92 HD12         6.5690    -1.3570    -2.0970 ha         1 0ZQ       0.129000
     93 HD22         7.7300    -2.6050     1.8290 ha         1 0ZQ       0.129000
     94 HE12         5.7820    -3.6340    -2.5890 ha         1 0ZQ       0.130500
     95 HE23         6.9590    -4.8900     1.3300 ha         1 0ZQ       0.130500
     96 HZ2          5.9880    -5.4170    -0.8870 ha         1 0ZQ       0.127000
     97 HN1          7.8710     0.7430     3.2190 hn         1 0ZQ       0.308500
     98 HN2          8.4040     2.3680     3.0530 hn         1 0ZQ       0.308500
@<TRIPOS>BOND
     1     1     2 2   
     2     2     3 1   
     3     2     8 1   
     4     3     4 1   
     5     4     5 1   
     6     4     6 1   
     7     4     7 1   
     8     5    51 1   
     9     5    52 1   
    10     5    53 1   
    11     6    54 1   
    12     6    55 1   
    13     6    56 1   
    14     7    57 1   
    15     7    58 1   
    16     7    59 1   
    17     8     9 1   
    18     8    60 1   
    19     9    10 1   
    20     9    11 1   
    21     9    61 1   
    22    10    18 1   
    23    10    62 1   
    24    10    63 1   
    25    11    12 1   
    26    11    64 1   
    27    11    65 1   
    28    12    13 ar  
    29    12    14 ar  
    30    13    15 ar  
    31    13    66 1   
    32    14    16 ar  
    33    14    67 1   
    34    15    17 ar  
    35    15    68 1   
    36    16    17 ar  
    37    16    69 1   
    38    17    70 1   
    39    18    19 1   
    40    18    71 1   
    41    18    72 1   
    42    19    20 1   
    43    19    73 1   
    44    20    21 1   
    45    20    23 1   
    46    20    74 1   
    47    21    22 2   
    48    21    30 1   
    49    23    24 1   
    50    23    75 1   
    51    23    76 1   
    52    24    25 ar  
    53    24    26 ar  
    54    25    27 ar  
    55    25    77 1   
    56    26    28 ar  
    57    26    78 1   
    58    27    29 ar  
    59    27    79 1   
    60    28    29 ar  
    61    28    80 1   
    62    29    81 1   
    63    30    31 1   
    64    30    82 1   
    65    31    32 1   
    66    31    34 1   
    67    31    83 1   
    68    32    33 2   
    69    32    39 1   
    70    34    35 1   
    71    34    84 1   
    72    34    85 1   
    73    35    36 1   
    74    35    86 1   
    75    35    87 1   
    76    36    37 1   
    77    36    38 1   
    78    39    40 1   
    79    39    88 1   
    80    40    41 1   
    81    40    43 1   
    82    40    89 1   
    83    41    42 2   
    84    41    50 1   
    85    43    44 1   
    86    43    90 1   
    87    43    91 1   
    88    44    45 ar  
    89    44    46 ar  
    90    45    47 ar  
    91    45    92 1   
    92    46    48 ar  
    93    46    93 1   
    94    47    49 ar  
    95    47    94 1   
    96    48    49 ar  
    97    48    95 1   
    98    49    96 1   
    99    50    97 1   
   100    50    98 1   
@<TRIPOS>SUBSTRUCTURE
     1 0ZQ         1 TEMP              0 ****  ****    0 ROOT
