@<TRIPOS>MOLECULE
0ZR
  101   103     1     0     0
SMALL
No Charge or Current Charge


@<TRIPOS>ATOM
      1 O1          -5.1050     0.2610     1.0200 o          1 0ZR      -0.542000
      2 C           -5.3430     0.1820    -0.1740 c          1 0ZR       0.648100
      3 O2          -6.3120     0.8460    -0.8730 os         1 0ZR      -0.481100
      4 CT          -7.2450     1.7510    -0.2400 c3         1 0ZR       0.225000
      5 C1          -6.4750     2.9500     0.3710 c3         1 0ZR      -0.109100
      6 C2          -8.1480     2.2380    -1.3950 c3         1 0ZR      -0.109100
      7 C3          -8.0940     0.9770     0.8030 c3         1 0ZR      -0.109100
      8 N           -4.6660    -0.6170    -1.0500 ns         1 0ZR      -0.499900
      9 CA          -3.6210    -1.5830    -0.6720 c3         1 0ZR       0.085700
     10 C4          -2.1810    -1.0100    -0.8360 c3         1 0ZR       0.160300
     11 OS          -1.9610    -0.5780    -2.1970 oh         1 0ZR      -0.654000
     12 CB          -3.8280    -2.9160    -1.4330 c3         1 0ZR      -0.050100
     13 CG          -5.2130    -3.5140    -1.2030 ca         1 0ZR      -0.086300
     14 CD1         -6.1700    -3.5220    -2.2380 ca         1 0ZR      -0.102500
     15 CD2         -5.5510    -4.0510     0.0550 ca         1 0ZR      -0.102500
     16 CE1         -7.4500    -4.0590    -2.0150 ca         1 0ZR      -0.108000
     17 CE2         -6.8310    -4.5880     0.2770 ca         1 0ZR      -0.108000
     18 CZ          -7.7810    -4.5910    -0.7570 ca         1 0ZR      -0.108000
     19 CM          -1.8810     0.1680     0.1330 c3         1 0ZR       0.133800
     20 N1          -0.4590     0.5690     0.0310 n7         1 0ZR      -0.867400
     21 CA1         -0.0850     1.8790     0.6640 c3         1 0ZR       0.110500
     22 C5           1.3280     2.3880     0.2130 c          1 0ZR       0.599100
     23 O            1.4860     3.4220    -0.4250 o          1 0ZR      -0.595100
     24 CB1         -0.2250     1.8580     2.2190 c3         1 0ZR      -0.022100
     25 CG1          0.7510     0.9320     2.9540 ca         1 0ZR      -0.083300
     26 CD11         1.8400     1.4770     3.6670 ca         1 0ZR      -0.093000
     27 CD21         0.5830    -0.4690     2.9220 ca         1 0ZR      -0.093000
     28 CE11         2.7570     0.6330     4.3180 ca         1 0ZR      -0.114000
     29 CE21         1.4990    -1.3120     3.5750 ca         1 0ZR      -0.114000
     30 CZ1          2.5890    -0.7620     4.2710 ca         1 0ZR      -0.109000
     31 N2           2.3810     1.5510     0.5230 ns         1 0ZR      -0.501900
     32 CA2          3.8030     1.7750     0.1820 c3         1 0ZR       0.033700
     33 C6           4.5080     0.4020    -0.0030 c          1 0ZR       0.591100
     34 O3           4.2660    -0.5680     0.7050 o          1 0ZR      -0.611100
     35 CB2          4.5390     2.6000     1.2730 c3         1 0ZR      -0.075400
     36 CG2          3.9870     4.0310     1.5050 c3         1 0ZR      -0.159400
     37 CD           4.7890     4.9010     2.4790 c          1 0ZR       0.602100
     38 OE1          5.7670     4.5140     3.0970 o          1 0ZR      -0.599100
     39 NE2          4.3450     6.1670     2.6300 nt         1 0ZR      -0.615000
     40 N3           5.4480     0.3590    -1.0130 ns         1 0ZR      -0.472900
     41 CA3          6.2000    -0.8480    -1.4340 c3         1 0ZR       0.032700
     42 C7           7.6290    -0.4540    -1.9110 c          1 0ZR       0.591100
     43 O4           8.0130     0.7010    -2.0200 o          1 0ZR      -0.593100
     44 CB3          5.4290    -1.6590    -2.5140 c3         1 0ZR      -0.040100
     45 CG3          4.0510    -2.1260    -2.0570 ca         1 0ZR      -0.088300
     46 CD12         2.8910    -1.4300    -2.4530 ca         1 0ZR      -0.105000
     47 CD22         3.9290    -3.2510    -1.2180 ca         1 0ZR      -0.105000
     48 CE12         1.6260    -1.8520    -2.0090 ca         1 0ZR      -0.103500
     49 CE22         2.6640    -3.6730    -0.7740 ca         1 0ZR      -0.103500
     50 CZ2          1.5110    -2.9720    -1.1680 ca         1 0ZR      -0.107000
     51 N4           8.4690    -1.4690    -2.2250 nt         1 0ZR      -0.602000
     52 H11         -5.7640     3.3660    -0.3530 hc         1 0ZR       0.049367
     53 H12         -7.1720     3.7470     0.6550 hc         1 0ZR       0.049367
     54 H13         -5.9230     2.6670     1.2740 hc         1 0ZR       0.049367
     55 H21         -8.6660     1.3940    -1.8660 hc         1 0ZR       0.049367
     56 H22         -8.9070     2.9400    -1.0290 hc         1 0ZR       0.049367
     57 H23         -7.5560     2.7490    -2.1640 hc         1 0ZR       0.049367
     58 H31         -7.5170     0.7340     1.7010 hc         1 0ZR       0.049367
     59 H32         -8.9510     1.5820     1.1220 hc         1 0ZR       0.049367
     60 H33         -8.4790     0.0440     0.3750 hc         1 0ZR       0.049367
     61 H           -5.0170    -0.6170    -1.9980 hn         1 0ZR       0.313500
     62 HA          -3.7480    -1.8120     0.3950 h1         1 0ZR       0.089700
     63 HC          -1.4770    -1.8160    -0.5830 h1         1 0ZR       0.091700
     64 HOS         -2.6790     0.0570    -2.4060 ho         1 0ZR       0.439000
     65 HB1         -3.6570    -2.7520    -2.5040 hc         1 0ZR       0.061700
     66 HB2         -3.0620    -3.6320    -1.1120 hc         1 0ZR       0.061700
     67 HD1         -5.9250    -3.1090    -3.2140 ha         1 0ZR       0.109500
     68 HD2         -4.8220    -4.0510     0.8620 ha         1 0ZR       0.109500
     69 HE1         -8.1850    -4.0610    -2.8170 ha         1 0ZR       0.112500
     70 HE2         -7.0850    -4.9990     1.2510 ha         1 0ZR       0.112500
     71 HZ          -8.7720    -5.0050    -0.5850 ha         1 0ZR       0.112000
     72 HM1         -2.5360     1.0120    -0.1250 h1         1 0ZR       0.041200
     73 HM2         -2.1250    -0.1370     1.1600 h1         1 0ZR       0.041200
     74 H1          -0.2580     0.6340    -0.9780 hn         1 0ZR       0.449000
     75 HA1         -0.7890     2.6410     0.3000 h1         1 0ZR       0.034700
     76 HB21        -0.0980     2.8860     2.5800 hc         1 0ZR       0.052700
     77 HB3         -1.2530     1.5910     2.4870 hc         1 0ZR       0.052700
     78 HD11         1.9860     2.5550     3.7080 ha         1 0ZR       0.115500
     79 HD21        -0.2530    -0.9090     2.3860 ha         1 0ZR       0.115500
     80 HE11         3.6000     1.0610     4.8560 ha         1 0ZR       0.111000
     81 HE21         1.3650    -2.3920     3.5380 ha         1 0ZR       0.111000
     82 HZ1          3.3010    -1.4160     4.7710 ha         1 0ZR       0.106000
     83 H2           2.1340     0.7000     1.0200 hn         1 0ZR       0.330500
     84 HA2          3.8560     2.3090    -0.7760 h1         1 0ZR       0.086700
     85 HB22         4.5140     2.0470     2.2210 hc         1 0ZR       0.077200
     86 HB31         5.5970     2.6780     0.9900 hc         1 0ZR       0.077200
     87 HG2          3.8820     4.5880     0.5660 hc         1 0ZR       0.060200
     88 HG3          2.9510     4.0210     1.8610 hc         1 0ZR       0.060200
     89 HE22         3.5360     6.4840     2.1160 hn         1 0ZR       0.312000
     90 HE23         4.8330     6.7910     3.2570 hn         1 0ZR       0.312000
     91 H3           5.6220     1.2240    -1.5150 hn         1 0ZR       0.326500
     92 HA3          6.3400    -1.4930    -0.5570 h1         1 0ZR       0.078700
     93 HB23         5.3390    -1.0460    -3.4190 hc         1 0ZR       0.062700
     94 HB32         6.0210    -2.5350    -2.8060 hc         1 0ZR       0.062700
     95 HD12         2.9690    -0.5570    -3.0970 ha         1 0ZR       0.108500
     96 HD22         4.8170    -3.7940    -0.9010 ha         1 0ZR       0.108500
     97 HE12         0.7350    -1.3100    -2.3150 ha         1 0ZR       0.116500
     98 HE24         2.5770    -4.5380    -0.1210 ha         1 0ZR       0.116500
     99 HZ2          0.5330    -3.2960    -0.8220 ha         1 0ZR       0.115000
    100 HN1          8.1670    -2.4280    -2.1370 hn         1 0ZR       0.315500
    101 HN2          9.4030    -1.2540    -2.5410 hn         1 0ZR       0.315500
@<TRIPOS>BOND
     1     1     2 2   
     2     2     3 1   
     3     2     8 1   
     4     3     4 1   
     5     4     5 1   
     6     4     6 1   
     7     4     7 1   
     8     5    52 1   
     9     5    53 1   
    10     5    54 1   
    11     6    55 1   
    12     6    56 1   
    13     6    57 1   
    14     7    58 1   
    15     7    59 1   
    16     7    60 1   
    17     8     9 1   
    18     8    61 1   
    19     9    10 1   
    20     9    12 1   
    21     9    62 1   
    22    10    11 1   
    23    10    19 1   
    24    10    63 1   
    25    11    64 1   
    26    12    13 1   
    27    12    65 1   
    28    12    66 1   
    29    13    14 ar  
    30    13    15 ar  
    31    14    16 ar  
    32    14    67 1   
    33    15    17 ar  
    34    15    68 1   
    35    16    18 ar  
    36    16    69 1   
    37    17    18 ar  
    38    17    70 1   
    39    18    71 1   
    40    19    20 1   
    41    19    72 1   
    42    19    73 1   
    43    20    21 1   
    44    20    74 1   
    45    21    22 1   
    46    21    24 1   
    47    21    75 1   
    48    22    23 2   
    49    22    31 1   
    50    24    25 1   
    51    24    76 1   
    52    24    77 1   
    53    25    26 ar  
    54    25    27 ar  
    55    26    28 ar  
    56    26    78 1   
    57    27    29 ar  
    58    27    79 1   
    59    28    30 ar  
    60    28    80 1   
    61    29    30 ar  
    62    29    81 1   
    63    30    82 1   
    64    31    32 1   
    65    31    83 1   
    66    32    33 1   
    67    32    35 1   
    68    32    84 1   
    69    33    34 2   
    70    33    40 1   
    71    35    36 1   
    72    35    85 1   
    73    35    86 1   
    74    36    37 1   
    75    36    87 1   
    76    36    88 1   
    77    37    38 2   
    78    37    39 1   
    79    39    89 1   
    80    39    90 1   
    81    40    41 1   
    82    40    91 1   
    83    41    42 1   
    84    41    44 1   
    85    41    92 1   
    86    42    43 2   
    87    42    51 1   
    88    44    45 1   
    89    44    93 1   
    90    44    94 1   
    91    45    46 ar  
    92    45    47 ar  
    93    46    48 ar  
    94    46    95 1   
    95    47    49 ar  
    96    47    96 1   
    97    48    50 ar  
    98    48    97 1   
    99    49    50 ar  
   100    49    98 1   
   101    50    99 1   
   102    51   100 1   
   103    51   101 1   
@<TRIPOS>SUBSTRUCTURE
     1 0ZR         1 TEMP              0 ****  ****    0 ROOT
