@<TRIPOS>MOLECULE
0ZR
  101   103     1     0     0
SMALL
bcc


@<TRIPOS>ATOM
      1 O1          -5.5570     0.4060     1.6670 o          1 0ZR      -0.591000
      2 C           -5.8160     0.7780     0.5420 c          1 0ZR       0.764100
      3 O2          -6.5880     1.8150     0.2240 os         1 0ZR      -0.457900
      4 CT          -7.3270     2.5780     1.2140 c3         1 0ZR       0.201800
      5 C1          -6.3790     3.3410     2.1310 c3         1 0ZR      -0.109100
      6 C2          -8.1260     3.5580     0.3640 c3         1 0ZR      -0.109100
      7 C3          -8.2810     1.6840     1.9980 c3         1 0ZR      -0.109100
      8 N           -5.3260     0.2090    -0.5870 ns         1 0ZR      -0.566900
      9 CA          -4.7230    -1.1070    -0.6000 c3         1 0ZR       0.085700
     10 C4          -3.2980    -1.0670    -1.1610 c3         1 0ZR       0.137100
     11 OS          -3.2610    -0.5890    -2.4900 oh         1 0ZR      -0.591800
     12 CB          -5.6250    -2.0860    -1.3650 c3         1 0ZR      -0.050100
     13 CG          -6.9750    -2.2060    -0.7160 ca         1 0ZR      -0.086300
     14 CD1         -8.0480    -1.4260    -1.1380 ca         1 0ZR      -0.120500
     15 CD2         -7.1640    -3.0630     0.3660 ca         1 0ZR      -0.120500
     16 CE1         -9.2770    -1.4940    -0.4930 ca         1 0ZR      -0.126000
     17 CE2         -8.3900    -3.1380     1.0120 ca         1 0ZR      -0.126000
     18 CZ          -9.4520    -2.3500     0.5850 ca         1 0ZR      -0.126000
     19 CM          -2.3620    -0.2830    -0.2530 c3         1 0ZR       0.133800
     20 N1          -0.9900    -0.4230    -0.6860 n7         1 0ZR      -0.812200
     21 CA1         -0.0430     0.2470     0.1690 c3         1 0ZR       0.110500
     22 C5           1.2130     0.6030    -0.6180 c          1 0ZR       0.666100
     23 O            1.3990     0.2310    -1.7650 o          1 0ZR      -0.595100
     24 CB1          0.3350    -0.6390     1.3790 c3         1 0ZR      -0.022100
     25 CG1          1.1760    -1.8230     0.9990 ca         1 0ZR      -0.083300
     26 CD11         2.5540    -1.8070     1.2100 ca         1 0ZR      -0.111000
     27 CD21         0.6110    -2.9430     0.3920 ca         1 0ZR      -0.111000
     28 CE11         3.3540    -2.8670     0.8040 ca         1 0ZR      -0.132000
     29 CE21         1.4040    -4.0120    -0.0010 ca         1 0ZR      -0.132000
     30 CZ1          2.7800    -3.9740     0.1950 ca         1 0ZR      -0.127000
     31 N2           2.0900     1.3630     0.0650 ns         1 0ZR      -0.568900
     32 CA2          3.4130     1.6900    -0.4040 c3         1 0ZR       0.033700
     33 C6           4.4270     1.2560     0.6460 c          1 0ZR       0.658100
     34 O3           4.2590     1.4970     1.8330 o          1 0ZR      -0.611100
     35 CB2          3.5820     3.1890    -0.6680 c3         1 0ZR      -0.075400
     36 CG2          2.7010     3.6510    -1.8150 c3         1 0ZR      -0.159400
     37 CD           2.8270     5.1320    -2.1120 c          1 0ZR       0.669100
     38 OE1          3.7140     5.8280    -1.6390 o          1 0ZR      -0.599100
     39 NE2          1.8940     5.6120    -2.9490 nt         1 0ZR      -0.682000
     40 N3           5.5110     0.6260     0.1780 ns         1 0ZR      -0.539900
     41 CA3          6.6420     0.3600     1.0240 c3         1 0ZR       0.032700
     42 C7           7.2650     1.6760     1.5050 c          1 0ZR       0.658100
     43 O4           7.2100     2.6910     0.8320 o          1 0ZR      -0.593100
     44 CB3          7.6950    -0.4550     0.2590 c3         1 0ZR      -0.040100
     45 CG3          7.2240    -1.8450    -0.0670 ca         1 0ZR      -0.088300
     46 CD12         6.6760    -2.1510    -1.3100 ca         1 0ZR      -0.123000
     47 CD22         7.3200    -2.8570     0.8870 ca         1 0ZR      -0.123000
     48 CE12         6.2350    -3.4370    -1.5940 ca         1 0ZR      -0.121500
     49 CE22         6.8850    -4.1440     0.6050 ca         1 0ZR      -0.121500
     50 CZ2          6.3420    -4.4380    -0.6390 ca         1 0ZR      -0.125000
     51 N4           7.9020     1.5860     2.6780 nt         1 0ZR      -0.669000
     52 H11         -5.6900     3.9600     1.5540 hc         1 0ZR       0.049367
     53 H12         -6.9570     4.0050     2.7760 hc         1 0ZR       0.049367
     54 H13         -5.8010     2.6780     2.7690 hc         1 0ZR       0.049367
     55 H21         -8.8060     3.0350    -0.3120 hc         1 0ZR       0.049367
     56 H22         -8.7250     4.2020     1.0080 hc         1 0ZR       0.049367
     57 H23         -7.4700     4.1950    -0.2310 hc         1 0ZR       0.049367
     58 H31         -7.7620     1.0100     2.6750 hc         1 0ZR       0.049367
     59 H32         -8.9470     2.3110     2.5920 hc         1 0ZR       0.049367
     60 H33         -8.8970     1.0870     1.3240 hc         1 0ZR       0.049367
     61 H           -5.7130     0.5390    -1.4580 hn         1 0ZR       0.313500
     62 HA          -4.6490    -1.4490     0.4340 h1         1 0ZR       0.089700
     63 HC          -2.9340    -2.0990    -1.2060 h1         1 0ZR       0.091700
     64 HOS         -3.4650     0.3530    -2.4800 ho         1 0ZR       0.400000
     65 HB1         -5.7300    -1.7540    -2.4010 hc         1 0ZR       0.061700
     66 HB2         -5.1320    -3.0610    -1.3960 hc         1 0ZR       0.061700
     67 HD1         -7.9260    -0.7580    -1.9820 ha         1 0ZR       0.127500
     68 HD2         -6.3410    -3.6820     0.7080 ha         1 0ZR       0.127500
     69 HE1        -10.0980    -0.8770    -0.8360 ha         1 0ZR       0.130500
     70 HE2         -8.5160    -3.8120     1.8490 ha         1 0ZR       0.130500
     71 HZ         -10.4090    -2.4060     1.0860 ha         1 0ZR       0.130000
     72 HM1         -2.6880     0.7690    -0.1980 h1         1 0ZR       0.041200
     73 HM2         -2.4610    -0.6830     0.7600 h1         1 0ZR       0.041200
     74 H1          -0.8890    -0.1010    -1.6390 hn         1 0ZR       0.393800
     75 HA1         -0.4510     1.1900     0.5730 h1         1 0ZR       0.034700
     76 HB21         0.8600    -0.0330     2.1210 hc         1 0ZR       0.052700
     77 HB3         -0.5890    -0.9640     1.8620 hc         1 0ZR       0.052700
     78 HD11         3.0090    -0.9550     1.7000 ha         1 0ZR       0.133500
     79 HD21        -0.4580    -2.9750     0.2230 ha         1 0ZR       0.133500
     80 HE11         4.4250    -2.8260     0.9580 ha         1 0ZR       0.129000
     81 HE21         0.9480    -4.8760    -0.4670 ha         1 0ZR       0.129000
     82 HZ1          3.3990    -4.8030    -0.1220 ha         1 0ZR       0.124000
     83 H2           1.8580     1.6490     1.0040 hn         1 0ZR       0.330500
     84 HA2          3.5800     1.1440    -1.3340 h1         1 0ZR       0.086700
     85 HB22         3.3440     3.7410     0.2450 hc         1 0ZR       0.077200
     86 HB31         4.6320     3.3890    -0.8920 hc         1 0ZR       0.077200
     87 HG2          2.9600     3.1060    -2.7290 hc         1 0ZR       0.060200
     88 HG3          1.6530     3.4150    -1.6140 hc         1 0ZR       0.060200
     89 HE22         1.1820     5.0220    -3.3440 hn         1 0ZR       0.312000
     90 HE23         1.9270     6.5700    -3.2580 hn         1 0ZR       0.312000
     91 H3           5.6200     0.5270    -0.8190 hn         1 0ZR       0.326500
     92 HA3          6.3110    -0.2220     1.8900 h1         1 0ZR       0.078700
     93 HB23         7.9690     0.0820    -0.6530 hc         1 0ZR       0.062700
     94 HB32         8.5980    -0.5070     0.8700 hc         1 0ZR       0.062700
     95 HD12         6.6060    -1.3840    -2.0720 ha         1 0ZR       0.126500
     96 HD22         7.7470    -2.6360     1.8590 ha         1 0ZR       0.126500
     97 HE12         5.8130    -3.6580    -2.5660 ha         1 0ZR       0.134500
     98 HE24         6.9720    -4.9180     1.3560 ha         1 0ZR       0.134500
     99 HZ2          6.0070    -5.4420    -0.8640 ha         1 0ZR       0.133000
    100 HN1          7.9020     0.7420     3.2240 hn         1 0ZR       0.315500
    101 HN2          8.4080     2.3740     3.0490 hn         1 0ZR       0.315500
@<TRIPOS>BOND
     1     1     2 2   
     2     2     3 1   
     3     2     8 1   
     4     3     4 1   
     5     4     5 1   
     6     4     6 1   
     7     4     7 1   
     8     5    52 1   
     9     5    53 1   
    10     5    54 1   
    11     6    55 1   
    12     6    56 1   
    13     6    57 1   
    14     7    58 1   
    15     7    59 1   
    16     7    60 1   
    17     8     9 1   
    18     8    61 1   
    19     9    10 1   
    20     9    12 1   
    21     9    62 1   
    22    10    11 1   
    23    10    19 1   
    24    10    63 1   
    25    11    64 1   
    26    12    13 1   
    27    12    65 1   
    28    12    66 1   
    29    13    14 ar  
    30    13    15 ar  
    31    14    16 ar  
    32    14    67 1   
    33    15    17 ar  
    34    15    68 1   
    35    16    18 ar  
    36    16    69 1   
    37    17    18 ar  
    38    17    70 1   
    39    18    71 1   
    40    19    20 1   
    41    19    72 1   
    42    19    73 1   
    43    20    21 1   
    44    20    74 1   
    45    21    22 1   
    46    21    24 1   
    47    21    75 1   
    48    22    23 2   
    49    22    31 1   
    50    24    25 1   
    51    24    76 1   
    52    24    77 1   
    53    25    26 ar  
    54    25    27 ar  
    55    26    28 ar  
    56    26    78 1   
    57    27    29 ar  
    58    27    79 1   
    59    28    30 ar  
    60    28    80 1   
    61    29    30 ar  
    62    29    81 1   
    63    30    82 1   
    64    31    32 1   
    65    31    83 1   
    66    32    33 1   
    67    32    35 1   
    68    32    84 1   
    69    33    34 2   
    70    33    40 1   
    71    35    36 1   
    72    35    85 1   
    73    35    86 1   
    74    36    37 1   
    75    36    87 1   
    76    36    88 1   
    77    37    38 2   
    78    37    39 1   
    79    39    89 1   
    80    39    90 1   
    81    40    41 1   
    82    40    91 1   
    83    41    42 1   
    84    41    44 1   
    85    41    92 1   
    86    42    43 2   
    87    42    51 1   
    88    44    45 1   
    89    44    93 1   
    90    44    94 1   
    91    45    46 ar  
    92    45    47 ar  
    93    46    48 ar  
    94    46    95 1   
    95    47    49 ar  
    96    47    96 1   
    97    48    50 ar  
    98    48    97 1   
    99    49    50 ar  
   100    49    98 1   
   101    50    99 1   
   102    51   100 1   
   103    51   101 1   
@<TRIPOS>SUBSTRUCTURE
     1 0ZR         1 TEMP              0 ****  ****    0 ROOT
