@<TRIPOS>MOLECULE
0ZS
   99   101     1     0     0
SMALL
No Charge or Current Charge


@<TRIPOS>ATOM
      1 O1           7.3090    -1.3930     0.0650 o          1 0ZS      -0.546000
      2 C            6.9490    -0.5870    -0.7780 c          1 0ZS       0.650100
      3 O2           7.6800    -0.1030    -1.8270 os         1 0ZS      -0.479100
      4 CT           9.0760    -0.4330    -2.0160 c3         1 0ZS       0.224000
      5 C1           9.2280    -1.9560    -2.2620 c3         1 0ZS      -0.107767
      6 C2           9.4840     0.3480    -3.2860 c3         1 0ZS      -0.107767
      7 C3           9.8960     0.0730    -0.8000 c3         1 0ZS      -0.107767
      8 N1           5.7160    -0.0020    -0.8190 ns         1 0ZS      -0.487900
      9 CA1          4.6790    -0.1360     0.2130 c3         1 0ZS       0.092700
     10 C5           3.2940    -0.4150    -0.4500 c3         1 0ZS       0.159300
     11 OXT          2.8410     0.7080    -1.2200 oh         1 0ZS      -0.646000
     12 CB1          4.7160     1.0890     1.1740 c3         1 0ZS      -0.059100
     13 CG1          6.1060     1.3610     1.7410 ca         1 0ZS      -0.079300
     14 CD11         6.9150     2.3780     1.1930 ca         1 0ZS      -0.098500
     15 CD21         6.6030     0.5820     2.8040 ca         1 0ZS      -0.098500
     16 CE11         8.2050     2.6100     1.7010 ca         1 0ZS      -0.109000
     17 CE21         7.8930     0.8150     3.3120 ca         1 0ZS      -0.109000
     18 CZ1          8.6950     1.8280     2.7600 ca         1 0ZS      -0.113000
     19 CM           2.1520    -0.7790     0.5400 c3         1 0ZS       0.136800
     20 N            0.8320    -0.6240    -0.1300 n7         1 0ZS      -0.866400
     21 CA          -0.3850    -0.7000     0.7500 c3         1 0ZS       0.100500
     22 C4          -1.7080    -1.0430    -0.0320 c          1 0ZS       0.603100
     23 O           -1.7470    -1.1810    -1.2510 o          1 0ZS      -0.588100
     24 CB          -0.5340     0.5860     1.6180 c3         1 0ZS      -0.021100
     25 CG          -0.6100     1.8830     0.8130 ca         1 0ZS      -0.083300
     26 CD1         -1.8480     2.3570     0.3340 ca         1 0ZS      -0.092500
     27 CD2          0.5580     2.6320     0.5640 ca         1 0ZS      -0.092500
     28 CE1         -1.9130     3.5600    -0.3890 ca         1 0ZS      -0.115500
     29 CE2          0.4930     3.8320    -0.1640 ca         1 0ZS      -0.115500
     30 CZ          -0.7430     4.2970    -0.6410 ca         1 0ZS      -0.114000
     31 N2          -2.8300    -1.2230     0.7550 ns         1 0ZS      -0.485900
     32 CA2         -4.1630    -1.6460     0.2660 c3         1 0ZS       0.033700
     33 C6          -5.2810    -0.7770     0.9210 c          1 0ZS       0.590100
     34 O3          -5.0510     0.0870     1.7600 o          1 0ZS      -0.633100
     35 CB2         -4.3900    -3.1690     0.4930 c3         1 0ZS      -0.061400
     36 CG2         -3.3400    -4.0890    -0.1860 c3         1 0ZS      -0.207400
     37 CD          -3.7290    -5.5650     0.0010 c          1 0ZS       0.717000
     38 OE1         -3.3320    -6.1430     1.0010 o          1 0ZS      -0.738500
     39 OE2         -4.4640    -6.0770    -0.8300 o          1 0ZS      -0.738500
     40 N3          -6.5660    -1.0560     0.5000 ns         1 0ZS      -0.481900
     41 CA3         -7.7810    -0.3130     0.9110 c3         1 0ZS       0.037700
     42 C7          -8.8630    -1.2830     1.4730 c          1 0ZS       0.586100
     43 O4          -8.7460    -2.4990     1.4870 o          1 0ZS      -0.567100
     44 CB3         -8.3220     0.5560    -0.2550 c3         1 0ZS      -0.043100
     45 CG3         -7.2460     1.4060    -0.9240 ca         1 0ZS      -0.078300
     46 CD12        -6.6860     1.0070    -2.1550 ca         1 0ZS      -0.104500
     47 CD22        -6.7990     2.5940    -0.3150 ca         1 0ZS      -0.104500
     48 CE12        -5.6950     1.7900    -2.7700 ca         1 0ZS      -0.107000
     49 CE22        -5.8100     3.3790    -0.9320 ca         1 0ZS      -0.107000
     50 CZ2         -5.2580     2.9770    -2.1610 ca         1 0ZS      -0.114000
     51 N4          -9.9930    -0.7140     1.9570 nt         1 0ZS      -0.611000
     52 H11          8.5000    -2.3060    -3.0040 hc         1 0ZS       0.047811
     53 H12         10.2320    -2.1840    -2.6400 hc         1 0ZS       0.047811
     54 H13          9.0910    -2.5360    -1.3430 hc         1 0ZS       0.047811
     55 H21          9.3390     1.4260    -3.1440 hc         1 0ZS       0.047811
     56 H22         10.5400     0.1770    -3.5270 hc         1 0ZS       0.047811
     57 H23          8.8830     0.0320    -4.1470 hc         1 0ZS       0.047811
     58 H31          9.7160    -0.5310     0.0960 hc         1 0ZS       0.047811
     59 H32         10.9690     0.0230    -1.0160 hc         1 0ZS       0.047811
     60 H33          9.6450     1.1150    -0.5690 hc         1 0ZS       0.047811
     61 H1           5.5560     0.6400    -1.5830 hn         1 0ZS       0.324500
     62 HA1          4.9210    -1.0240     0.8150 h1         1 0ZS       0.092700
     63 HC           3.4190    -1.2810    -1.1150 h1         1 0ZS       0.092700
     64 HOR          1.8650     0.6770    -1.0580 ho         1 0ZS       0.436000
     65 HB21         4.3520     1.9760     0.6420 hc         1 0ZS       0.050700
     66 HB31         4.0190     0.9280     2.0040 hc         1 0ZS       0.050700
     67 HD11         6.5470     2.9820     0.3670 ha         1 0ZS       0.111000
     68 HD21         5.9920    -0.2090     3.2330 ha         1 0ZS       0.111000
     69 HE11         8.8250     3.3930     1.2700 ha         1 0ZS       0.109000
     70 HE21         8.2720     0.2080     4.1310 ha         1 0ZS       0.109000
     71 HZ1          9.6940     2.0060     3.1510 ha         1 0ZS       0.107000
     72 HM1          2.2910    -1.8060     0.9020 h1         1 0ZS       0.030200
     73 HM2          2.2080    -0.1150     1.4090 h1         1 0ZS       0.030200
     74 H            0.7410    -1.3610    -0.8470 hn         1 0ZS       0.455000
     75 HA          -0.2590    -1.5400     1.4470 h1         1 0ZS       0.038700
     76 HB2         -1.4200     0.4970     2.2570 hc         1 0ZS       0.044200
     77 HB3          0.3060     0.6400     2.3200 hc         1 0ZS       0.044200
     78 HD1         -2.7610     1.7970     0.5260 ha         1 0ZS       0.121000
     79 HD2          1.5190     2.2820     0.9340 ha         1 0ZS       0.121000
     80 HE1         -2.8690     3.9250    -0.7520 ha         1 0ZS       0.109000
     81 HE2          1.4000     4.4010    -0.3550 ha         1 0ZS       0.109000
     82 HZ          -0.7960     5.2270    -1.2020 ha         1 0ZS       0.101000
     83 H2          -2.7190    -1.0640     1.7490 hn         1 0ZS       0.321500
     84 HA2         -4.2260    -1.4470    -0.8120 h1         1 0ZS       0.080700
     85 HB22        -4.4010    -3.3720     1.5720 hc         1 0ZS       0.061200
     86 HB32        -5.3820    -3.4470     0.1160 hc         1 0ZS       0.061200
     87 HG2         -3.3520    -3.8240    -1.2500 hc         1 0ZS       0.023700
     88 HG3         -2.3830    -3.8870     0.3110 hc         1 0ZS       0.023700
     89 H3          -6.6730    -1.8070    -0.1720 hn         1 0ZS       0.329500
     90 HA3         -7.5200     0.3620     1.7360 h1         1 0ZS       0.067700
     91 HB23        -8.7900    -0.1030    -0.9970 hc         1 0ZS       0.060700
     92 HB33        -9.1240     1.2060     0.1160 hc         1 0ZS       0.060700
     93 HD12        -7.0180     0.0890    -2.6350 ha         1 0ZS       0.111500
     94 HD22        -7.2200     2.9100     0.6370 ha         1 0ZS       0.111500
     95 HE12        -5.2670     1.4770    -3.7200 ha         1 0ZS       0.112000
     96 HE23        -5.4720     4.2980    -0.4580 ha         1 0ZS       0.112000
     97 HZ2         -4.4950     3.5850    -2.6410 ha         1 0ZS       0.109000
     98 HN1        -10.1000     0.2900     1.9560 hn         1 0ZS       0.308500
     99 HN2        -10.7210    -1.3060     2.3290 hn         1 0ZS       0.308500
@<TRIPOS>BOND
     1     1     2 2   
     2     2     3 1   
     3     2     8 1   
     4     3     4 1   
     5     4     5 1   
     6     4     6 1   
     7     4     7 1   
     8     5    52 1   
     9     5    53 1   
    10     5    54 1   
    11     6    55 1   
    12     6    56 1   
    13     6    57 1   
    14     7    58 1   
    15     7    59 1   
    16     7    60 1   
    17     8     9 1   
    18     8    61 1   
    19     9    10 1   
    20     9    12 1   
    21     9    62 1   
    22    10    11 1   
    23    10    19 1   
    24    10    63 1   
    25    11    64 1   
    26    12    13 1   
    27    12    65 1   
    28    12    66 1   
    29    13    14 ar  
    30    13    15 ar  
    31    14    16 ar  
    32    14    67 1   
    33    15    17 ar  
    34    15    68 1   
    35    16    18 ar  
    36    16    69 1   
    37    17    18 ar  
    38    17    70 1   
    39    18    71 1   
    40    19    20 1   
    41    19    72 1   
    42    19    73 1   
    43    20    21 1   
    44    20    74 1   
    45    21    22 1   
    46    21    24 1   
    47    21    75 1   
    48    22    23 2   
    49    22    31 1   
    50    24    25 1   
    51    24    76 1   
    52    24    77 1   
    53    25    26 ar  
    54    25    27 ar  
    55    26    28 ar  
    56    26    78 1   
    57    27    29 ar  
    58    27    79 1   
    59    28    30 ar  
    60    28    80 1   
    61    29    30 ar  
    62    29    81 1   
    63    30    82 1   
    64    31    32 1   
    65    31    83 1   
    66    32    33 1   
    67    32    35 1   
    68    32    84 1   
    69    33    34 2   
    70    33    40 1   
    71    35    36 1   
    72    35    85 1   
    73    35    86 1   
    74    36    37 1   
    75    36    87 1   
    76    36    88 1   
    77    37    38 1   
    78    37    39 1   
    79    40    41 1   
    80    40    89 1   
    81    41    42 1   
    82    41    44 1   
    83    41    90 1   
    84    42    43 2   
    85    42    51 1   
    86    44    45 1   
    87    44    91 1   
    88    44    92 1   
    89    45    46 ar  
    90    45    47 ar  
    91    46    48 ar  
    92    46    93 1   
    93    47    49 ar  
    94    47    94 1   
    95    48    50 ar  
    96    48    95 1   
    97    49    50 ar  
    98    49    96 1   
    99    50    97 1   
   100    51    98 1   
   101    51    99 1   
@<TRIPOS>SUBSTRUCTURE
     1 0ZS         1 TEMP              0 ****  ****    0 ROOT
