@<TRIPOS>MOLECULE
0ZS
   99   101     1     0     0
SMALL
bcc


@<TRIPOS>ATOM
      1 O1           6.9470    -1.5310    -0.3060 o          1 0ZS      -0.595000
      2 C            6.8510    -0.4350    -0.8190 c          1 0ZS       0.766100
      3 O2           7.7650     0.1370    -1.6040 os         1 0ZS      -0.455900
      4 CT           9.0340    -0.4960    -1.9080 c3         1 0ZS       0.200800
      5 C1           8.8250    -1.7650    -2.7260 c3         1 0ZS      -0.107767
      6 C2           9.7480     0.5500    -2.7550 c3         1 0ZS      -0.107767
      7 C3           9.8390    -0.7600    -0.6390 c3         1 0ZS      -0.107767
      8 N1           5.7720     0.3730    -0.7040 ns         1 0ZS      -0.554900
      9 CA1          4.7350     0.1590     0.2770 c3         1 0ZS       0.092700
     10 C5           3.3580     0.2980    -0.3860 c3         1 0ZS       0.136100
     11 OXT          3.1830     1.5720    -0.9680 oh         1 0ZS      -0.583800
     12 CB1          4.9250     1.1000     1.4800 c3         1 0ZS      -0.059100
     13 CG1          6.2850     0.9530     2.1010 ca         1 0ZS      -0.079300
     14 CD11         7.3430     1.7690     1.7100 ca         1 0ZS      -0.116500
     15 CD21         6.5250    -0.0370     3.0510 ca         1 0ZS      -0.116500
     16 CE11         8.6090     1.6020     2.2550 ca         1 0ZS      -0.127000
     17 CE21         7.7880    -0.2060     3.6000 ca         1 0ZS      -0.127000
     18 CZ1          8.8360     0.6130     3.2010 ca         1 0ZS      -0.131000
     19 CM           2.2350    -0.0750     0.5720 c3         1 0ZS       0.136800
     20 N            0.9700    -0.1740    -0.1180 n7         1 0ZS      -0.810200
     21 CA          -0.1590    -0.3310     0.7660 c3         1 0ZS       0.100500
     22 C4          -1.3180    -0.9950     0.0310 c          1 0ZS       0.670100
     23 O           -1.3120    -1.1760    -1.1750 o          1 0ZS      -0.588100
     24 CB          -0.6250     1.0430     1.3040 c3         1 0ZS      -0.021100
     25 CG          -1.3810     1.8430     0.2820 ca         1 0ZS      -0.083300
     26 CD1         -2.7650     1.9730     0.3810 ca         1 0ZS      -0.110500
     27 CD2         -0.7350     2.4240    -0.8090 ca         1 0ZS      -0.110500
     28 CE1         -3.4950     2.6450    -0.5910 ca         1 0ZS      -0.133500
     29 CE2         -1.4590     3.1090    -1.7740 ca         1 0ZS      -0.133500
     30 CZ          -2.8410     3.2160    -1.6730 ca         1 0ZS      -0.132000
     31 N2          -2.3450    -1.3360     0.8290 ns         1 0ZS      -0.552900
     32 CA2         -3.6360    -1.7660     0.3480 c3         1 0ZS       0.033700
     33 C6          -4.7070    -0.9490     1.0550 c          1 0ZS       0.657100
     34 O3          -4.6400    -0.7030     2.2520 o          1 0ZS      -0.633100
     35 CB2         -3.9020    -3.2540     0.6090 c3         1 0ZS      -0.061400
     36 CG2         -2.9570    -4.1600    -0.1600 c3         1 0ZS      -0.207400
     37 CD          -3.1900    -5.6680     0.0380 c          1 0ZS       0.927600
     38 OE1         -4.0410    -6.0230     0.8770 o          1 0ZS      -0.843800
     39 OE2         -2.4860    -6.4230    -0.6660 o          1 0ZS      -0.843800
     40 N3          -5.7390    -0.5570     0.2950 ns         1 0ZS      -0.548900
     41 CA3         -6.9180     0.0130     0.8890 c3         1 0ZS       0.037700
     42 C7          -7.6010    -1.0130     1.8010 c          1 0ZS       0.653100
     43 O4          -7.5600    -2.2070     1.5590 o          1 0ZS      -0.567100
     44 CB3         -7.9010     0.4550    -0.2030 c3         1 0ZS      -0.043100
     45 CG3         -7.3940     1.6250    -1.0010 ca         1 0ZS      -0.078300
     46 CD12        -6.8350     1.4520    -2.2630 ca         1 0ZS      -0.122500
     47 CD22        -7.4720     2.9140    -0.4770 ca         1 0ZS      -0.122500
     48 CE12        -6.3660     2.5400    -2.9890 ca         1 0ZS      -0.125000
     49 CE22        -7.0080     4.0040    -1.2000 ca         1 0ZS      -0.125000
     50 CZ2         -6.4540     3.8200    -2.4610 ca         1 0ZS      -0.132000
     51 N4          -8.2740    -0.4780     2.8260 nt         1 0ZS      -0.678000
     52 H11          8.2300    -1.5580    -3.6180 hc         1 0ZS       0.047811
     53 H12          9.7920    -2.1430    -3.0580 hc         1 0ZS       0.047811
     54 H13          8.3350    -2.5500    -2.1550 hc         1 0ZS       0.047811
     55 H21          9.9040     1.4750    -2.1970 hc         1 0ZS       0.047811
     56 H22         10.7250     0.1740    -3.0580 hc         1 0ZS       0.047811
     57 H23          9.1860     0.7850    -3.6610 hc         1 0ZS       0.047811
     58 H31          9.4160    -1.5570    -0.0350 hc         1 0ZS       0.047811
     59 H32         10.8550    -1.0450    -0.9150 hc         1 0ZS       0.047811
     60 H33          9.8990     0.1390    -0.0250 hc         1 0ZS       0.047811
     61 H1           5.8260     1.2900    -1.1230 hn         1 0ZS       0.324500
     62 HA1          4.8260    -0.8720     0.6230 h1         1 0ZS       0.092700
     63 HC           3.3460    -0.4110    -1.2210 h1         1 0ZS       0.092700
     64 HOR          2.9080     2.1940    -0.2870 ho         1 0ZS       0.397000
     65 HB21         4.7780     2.1360     1.1590 hc         1 0ZS       0.050700
     66 HB31         4.1560     0.8920     2.2270 hc         1 0ZS       0.050700
     67 HD11         7.1740     2.5460     0.9750 ha         1 0ZS       0.129000
     68 HD21         5.7130    -0.6810     3.3680 ha         1 0ZS       0.129000
     69 HE11         9.4190     2.2480     1.9390 ha         1 0ZS       0.127000
     70 HE21         7.9520    -0.9780     4.3410 ha         1 0ZS       0.127000
     71 HZ1          9.8230     0.4840     3.6280 ha         1 0ZS       0.125000
     72 HM1          2.5120    -1.0050     1.0940 h1         1 0ZS       0.030200
     73 HM2          2.1510     0.6890     1.3520 h1         1 0ZS       0.030200
     74 H            1.0010    -0.9290    -0.7910 hn         1 0ZS       0.399800
     75 HA           0.0880    -0.9580     1.6400 h1         1 0ZS       0.038700
     76 HB2         -1.2460     0.8910     2.1890 hc         1 0ZS       0.044200
     77 HB3          0.2550     1.5890     1.6500 hc         1 0ZS       0.044200
     78 HD1         -3.2790     1.5400     1.2310 ha         1 0ZS       0.139000
     79 HD2          0.3380     2.3180    -0.9100 ha         1 0ZS       0.139000
     80 HE1         -4.5720     2.7160    -0.5060 ha         1 0ZS       0.127000
     81 HE2         -0.9430     3.5560    -2.6150 ha         1 0ZS       0.127000
     82 HZ          -3.4060     3.7390    -2.4340 ha         1 0ZS       0.119000
     83 H2          -2.2620    -1.1790     1.8220 hn         1 0ZS       0.321500
     84 HA2         -3.6690    -1.5780    -0.7270 h1         1 0ZS       0.080700
     85 HB22        -3.8250    -3.4420     1.6830 hc         1 0ZS       0.061200
     86 HB32        -4.9370    -3.4690     0.3310 hc         1 0ZS       0.061200
     87 HG2         -3.0160    -3.9360    -1.2300 hc         1 0ZS       0.023700
     88 HG3         -1.9210    -3.9420     0.1200 hc         1 0ZS       0.023700
     89 H3          -5.7750    -0.8540    -0.6670 hn         1 0ZS       0.329500
     90 HA3         -6.6330     0.8900     1.4780 h1         1 0ZS       0.067700
     91 HB23        -8.1130    -0.3940    -0.8600 hc         1 0ZS       0.060700
     92 HB33        -8.8460     0.7220     0.2750 hc         1 0ZS       0.060700
     93 HD12        -6.7730     0.4590    -2.6930 ha         1 0ZS       0.129500
     94 HD22        -7.9100     3.0720     0.5020 ha         1 0ZS       0.129500
     95 HE12        -5.9350     2.3850    -3.9700 ha         1 0ZS       0.130000
     96 HE23        -7.0830     4.9990    -0.7800 ha         1 0ZS       0.130000
     97 HZ2         -6.0940     4.6700    -3.0260 ha         1 0ZS       0.127000
     98 HN1         -8.2530     0.5070     3.0250 hn         1 0ZS       0.308500
     99 HN2         -8.8100    -1.0620     3.4470 hn         1 0ZS       0.308500
@<TRIPOS>BOND
     1     1     2 2   
     2     2     3 1   
     3     2     8 1   
     4     3     4 1   
     5     4     5 1   
     6     4     6 1   
     7     4     7 1   
     8     5    52 1   
     9     5    53 1   
    10     5    54 1   
    11     6    55 1   
    12     6    56 1   
    13     6    57 1   
    14     7    58 1   
    15     7    59 1   
    16     7    60 1   
    17     8     9 1   
    18     8    61 1   
    19     9    10 1   
    20     9    12 1   
    21     9    62 1   
    22    10    11 1   
    23    10    19 1   
    24    10    63 1   
    25    11    64 1   
    26    12    13 1   
    27    12    65 1   
    28    12    66 1   
    29    13    14 ar  
    30    13    15 ar  
    31    14    16 ar  
    32    14    67 1   
    33    15    17 ar  
    34    15    68 1   
    35    16    18 ar  
    36    16    69 1   
    37    17    18 ar  
    38    17    70 1   
    39    18    71 1   
    40    19    20 1   
    41    19    72 1   
    42    19    73 1   
    43    20    21 1   
    44    20    74 1   
    45    21    22 1   
    46    21    24 1   
    47    21    75 1   
    48    22    23 2   
    49    22    31 1   
    50    24    25 1   
    51    24    76 1   
    52    24    77 1   
    53    25    26 ar  
    54    25    27 ar  
    55    26    28 ar  
    56    26    78 1   
    57    27    29 ar  
    58    27    79 1   
    59    28    30 ar  
    60    28    80 1   
    61    29    30 ar  
    62    29    81 1   
    63    30    82 1   
    64    31    32 1   
    65    31    83 1   
    66    32    33 1   
    67    32    35 1   
    68    32    84 1   
    69    33    34 2   
    70    33    40 1   
    71    35    36 1   
    72    35    85 1   
    73    35    86 1   
    74    36    37 1   
    75    36    87 1   
    76    36    88 1   
    77    37    38 1   
    78    37    39 1   
    79    40    41 1   
    80    40    89 1   
    81    41    42 1   
    82    41    44 1   
    83    41    90 1   
    84    42    43 2   
    85    42    51 1   
    86    44    45 1   
    87    44    91 1   
    88    44    92 1   
    89    45    46 ar  
    90    45    47 ar  
    91    46    48 ar  
    92    46    93 1   
    93    47    49 ar  
    94    47    94 1   
    95    48    50 ar  
    96    48    95 1   
    97    49    50 ar  
    98    49    96 1   
    99    50    97 1   
   100    51    98 1   
   101    51    99 1   
@<TRIPOS>SUBSTRUCTURE
     1 0ZS         1 TEMP              0 ****  ****    0 ROOT
