@<TRIPOS>MOLECULE
0ZT
   99   101     1     0     0
SMALL
bcc


@<TRIPOS>ATOM
      1 O1          -5.5660     0.3570     1.6650 o          1 0ZT      -0.595000
      2 C           -5.8210     0.7760     0.5550 c          1 0ZT       0.765100
      3 O2          -6.6000     1.8190     0.2780 os         1 0ZT      -0.455900
      4 CT          -7.3330     2.5470     1.2960 c3         1 0ZT       0.201800
      5 C1          -6.3790     3.2810     2.2310 c3         1 0ZT      -0.108767
      6 C2          -8.1400     3.5530     0.4840 c3         1 0ZT      -0.108767
      7 C3          -8.2800     1.6270     2.0580 c3         1 0ZT      -0.108767
      8 N           -5.3220     0.2580    -0.5940 ns         1 0ZT      -0.561900
      9 CA          -4.7150    -1.0550    -0.6610 c3         1 0ZT       0.085700
     10 C4          -3.2870    -0.9860    -1.2090 c3         1 0ZT       0.138100
     11 OS          -3.2420    -0.4520    -2.5160 oh         1 0ZT      -0.592800
     12 CB          -5.6070    -2.0020    -1.4760 c3         1 0ZT      -0.053100
     13 CG          -6.9640    -2.1500    -0.8480 ca         1 0ZT      -0.080300
     14 CD1         -8.0340    -1.3530    -1.2480 ca         1 0ZT      -0.120000
     15 CD2         -7.1650    -3.0510     0.1960 ca         1 0ZT      -0.120000
     16 CE1         -9.2690    -1.4480    -0.6200 ca         1 0ZT      -0.128000
     17 CE2         -8.3970    -3.1520     0.8250 ca         1 0ZT      -0.128000
     18 CZ          -9.4550    -2.3470     0.4200 ca         1 0ZT      -0.131000
     19 CM          -2.3590    -0.2390    -0.2620 c3         1 0ZT       0.136800
     20 N1          -0.9830    -0.3610    -0.6890 n7         1 0ZT      -0.817200
     21 CA1         -0.0440     0.2830     0.1940 c3         1 0ZT       0.104500
     22 C5           1.2210     0.6580    -0.5720 c          1 0ZT       0.670100
     23 O            1.4220     0.3020    -1.7210 o          1 0ZT      -0.596100
     24 CB1          0.3250    -0.6370     1.3810 c3         1 0ZT      -0.024100
     25 CG1          1.1640    -1.8120     0.9720 ca         1 0ZT      -0.073300
     26 CD11         2.5420    -1.8020     1.1770 ca         1 0ZT      -0.109000
     27 CD21         0.5960    -2.9180     0.3420 ca         1 0ZT      -0.109000
     28 CE11         3.3410    -2.8520     0.7450 ca         1 0ZT      -0.135000
     29 CE21         1.3880    -3.9780    -0.0790 ca         1 0ZT      -0.135000
     30 CZ1          2.7640    -3.9440     0.1120 ca         1 0ZT      -0.134000
     31 N2           2.0840     1.4080     0.1360 ns         1 0ZT      -0.553900
     32 CA2          3.4080     1.7680    -0.3130 c3         1 0ZT       0.031700
     33 C6           4.4170     1.2950     0.7220 c          1 0ZT       0.657100
     34 O3           4.2510     1.4960     1.9170 o          1 0ZT      -0.628100
     35 CB2          3.5600     3.2810    -0.5120 c3         1 0ZT      -0.061400
     36 CG2          2.6750     3.8030    -1.6300 c3         1 0ZT      -0.208400
     37 CD           2.7460     5.3220    -1.8730 c          1 0ZT       0.928600
     38 OE1          3.5670     5.9820    -1.2060 o          1 0ZT      -0.843300
     39 OE2          1.9640     5.7680    -2.7380 o          1 0ZT      -0.843300
     40 N3           5.5000     0.6720     0.2380 ns         1 0ZT      -0.548900
     41 CA3          6.6220     0.3690     1.0830 c3         1 0ZT       0.037700
     42 C7           7.2510     1.6610     1.6150 c          1 0ZT       0.653100
     43 O4           7.2260     2.6960     0.9700 o          1 0ZT      -0.570100
     44 CB3          7.6770    -0.4250     0.2990 c3         1 0ZT      -0.042100
     45 CG3          7.2090    -1.8050    -0.0720 ca         1 0ZT      -0.079300
     46 CD12         6.6710    -2.0760    -1.3260 ca         1 0ZT      -0.122000
     47 CD22         7.3000    -2.8440     0.8530 ca         1 0ZT      -0.122000
     48 CE12         6.2360    -3.3540    -1.6520 ca         1 0ZT      -0.124000
     49 CE22         6.8710    -4.1230     0.5300 ca         1 0ZT      -0.124000
     50 CZ2          6.3380    -4.3820    -0.7270 ca         1 0ZT      -0.131000
     51 N4           7.8590     1.5300     2.7990 nt         1 0ZT      -0.677000
     52 H11         -5.6910     3.9150     1.6690 hc         1 0ZT       0.048811
     53 H12         -6.9530     3.9270     2.8970 hc         1 0ZT       0.048811
     54 H13         -5.7990     2.5980     2.8480 hc         1 0ZT       0.048811
     55 H21         -8.8250     3.0500    -0.2010 hc         1 0ZT       0.048811
     56 H22         -8.7320     4.1770     1.1520 hc         1 0ZT       0.048811
     57 H23         -7.4890     4.2080    -0.0970 hc         1 0ZT       0.048811
     58 H31         -7.7550     0.9410     2.7180 hc         1 0ZT       0.048811
     59 H32         -8.9490     2.2330     2.6700 hc         1 0ZT       0.048811
     60 H33         -8.8920     1.0420     1.3710 hc         1 0ZT       0.048811
     61 H           -5.7050     0.6240    -1.4530 hn         1 0ZT       0.314500
     62 HA          -4.6470    -1.4410     0.3580 h1         1 0ZT       0.086700
     63 HC          -2.9180    -2.0140    -1.2960 h1         1 0ZT       0.086700
     64 HOS         -3.4480     0.4890    -2.4660 ho         1 0ZT       0.406000
     65 HB1         -5.7010    -1.6270    -2.4990 hc         1 0ZT       0.061700
     66 HB2         -5.1120    -2.9740    -1.5400 hc         1 0ZT       0.061700
     67 HD1         -7.9040    -0.6510    -2.0620 ha         1 0ZT       0.129000
     68 HD2         -6.3450    -3.6830     0.5200 ha         1 0ZT       0.129000
     69 HE1        -10.0870    -0.8170    -0.9450 ha         1 0ZT       0.127500
     70 HE2         -8.5310    -3.8620     1.6320 ha         1 0ZT       0.127500
     71 HZ         -10.4170    -2.4250     0.9100 ha         1 0ZT       0.126000
     72 HM1         -2.6870     0.8110    -0.1690 h1         1 0ZT       0.039200
     73 HM2         -2.4660    -0.6770     0.7340 h1         1 0ZT       0.039200
     74 H1          -0.8760    -0.0100    -1.6310 hn         1 0ZT       0.401800
     75 HA1         -0.4550     1.2140     0.6200 h1         1 0ZT       0.041700
     76 HB21         0.8490    -0.0520     2.1400 hc         1 0ZT       0.047700
     77 HB3         -0.6030    -0.9720     1.8510 hc         1 0ZT       0.047700
     78 HD11         3.0000    -0.9610     1.6830 ha         1 0ZT       0.135500
     79 HD21        -0.4730    -2.9460     0.1760 ha         1 0ZT       0.135500
     80 HE11         4.4120    -2.8150     0.8950 ha         1 0ZT       0.124500
     81 HE21         0.9300    -4.8320    -0.5630 ha         1 0ZT       0.124500
     82 HZ1          3.3820    -4.7660    -0.2260 ha         1 0ZT       0.117000
     83 H2           1.8320     1.6880     1.0720 hn         1 0ZT       0.322500
     84 HA2          3.5820     1.2640    -1.2650 h1         1 0ZT       0.080700
     85 HB22         3.3260     3.7860     0.4290 hc         1 0ZT       0.061700
     86 HB31         4.6090     3.4970    -0.7270 hc         1 0ZT       0.061700
     87 HG2          2.9330     3.2970    -2.5680 hc         1 0ZT       0.022200
     88 HG3          1.6320     3.5360    -1.4370 hc         1 0ZT       0.022200
     89 H3           5.6120     0.6010    -0.7610 hn         1 0ZT       0.327500
     90 HA3          6.2820    -0.2400     1.9260 h1         1 0ZT       0.068700
     91 HB23         7.9580     0.1390    -0.5950 hc         1 0ZT       0.059200
     92 HB32         8.5770    -0.4960     0.9130 hc         1 0ZT       0.059200
     93 HD12         6.6050    -1.2870    -2.0670 ha         1 0ZT       0.128500
     94 HD22         7.7210    -2.6520     1.8340 ha         1 0ZT       0.128500
     95 HE12         5.8220    -3.5470    -2.6340 ha         1 0ZT       0.130500
     96 HE23         6.9550    -4.9200     1.2590 ha         1 0ZT       0.130500
     97 HZ2          6.0070    -5.3800    -0.9830 ha         1 0ZT       0.127000
     98 HN1          7.8390     0.6700     3.3190 hn         1 0ZT       0.308500
     99 HN2          8.3690     2.3000     3.2020 hn         1 0ZT       0.308500
@<TRIPOS>BOND
     1     1     2 2   
     2     2     3 1   
     3     2     8 1   
     4     3     4 1   
     5     4     5 1   
     6     4     6 1   
     7     4     7 1   
     8     5    52 1   
     9     5    53 1   
    10     5    54 1   
    11     6    55 1   
    12     6    56 1   
    13     6    57 1   
    14     7    58 1   
    15     7    59 1   
    16     7    60 1   
    17     8     9 1   
    18     8    61 1   
    19     9    10 1   
    20     9    12 1   
    21     9    62 1   
    22    10    11 1   
    23    10    19 1   
    24    10    63 1   
    25    11    64 1   
    26    12    13 1   
    27    12    65 1   
    28    12    66 1   
    29    13    14 ar  
    30    13    15 ar  
    31    14    16 ar  
    32    14    67 1   
    33    15    17 ar  
    34    15    68 1   
    35    16    18 ar  
    36    16    69 1   
    37    17    18 ar  
    38    17    70 1   
    39    18    71 1   
    40    19    20 1   
    41    19    72 1   
    42    19    73 1   
    43    20    21 1   
    44    20    74 1   
    45    21    22 1   
    46    21    24 1   
    47    21    75 1   
    48    22    23 2   
    49    22    31 1   
    50    24    25 1   
    51    24    76 1   
    52    24    77 1   
    53    25    26 ar  
    54    25    27 ar  
    55    26    28 ar  
    56    26    78 1   
    57    27    29 ar  
    58    27    79 1   
    59    28    30 ar  
    60    28    80 1   
    61    29    30 ar  
    62    29    81 1   
    63    30    82 1   
    64    31    32 1   
    65    31    83 1   
    66    32    33 1   
    67    32    35 1   
    68    32    84 1   
    69    33    34 2   
    70    33    40 1   
    71    35    36 1   
    72    35    85 1   
    73    35    86 1   
    74    36    37 1   
    75    36    87 1   
    76    36    88 1   
    77    37    38 1   
    78    37    39 1   
    79    40    41 1   
    80    40    89 1   
    81    41    42 1   
    82    41    44 1   
    83    41    90 1   
    84    42    43 2   
    85    42    51 1   
    86    44    45 1   
    87    44    91 1   
    88    44    92 1   
    89    45    46 ar  
    90    45    47 ar  
    91    46    48 ar  
    92    46    93 1   
    93    47    49 ar  
    94    47    94 1   
    95    48    50 ar  
    96    48    95 1   
    97    49    50 ar  
    98    49    96 1   
    99    50    97 1   
   100    51    98 1   
   101    51    99 1   
@<TRIPOS>SUBSTRUCTURE
     1 0ZT         1 TEMP              0 ****  ****    0 ROOT
