@<TRIPOS>MOLECULE
0ZT
   99   101     1     0     0
SMALL
No Charge or Current Charge


@<TRIPOS>ATOM
      1 O1          -5.2240     0.1190     1.4790 o          1 0ZT      -0.546000
      2 C           -5.6490     0.5050     0.4030 c          1 0ZT       0.649100
      3 O2          -6.3900     1.6270     0.1570 os         1 0ZT      -0.479100
      4 CT          -6.8020     2.5310     1.2080 c3         1 0ZT       0.225000
      5 C1          -5.5510     3.1560     1.8790 c3         1 0ZT      -0.108767
      6 C2          -7.6080     3.6260     0.4740 c3         1 0ZT      -0.108767
      7 C3          -7.7190     1.7820     2.2100 c3         1 0ZT      -0.108767
      8 N           -5.4350    -0.1270    -0.7890 ns         1 0ZT      -0.494900
      9 CA          -4.7310    -1.4100    -0.9490 c3         1 0ZT       0.085700
     10 C4          -3.2240    -1.2290    -1.3110 c3         1 0ZT       0.161300
     11 OS          -3.0870    -0.4610    -2.5280 oh         1 0ZT      -0.655000
     12 CB          -5.4890    -2.3150    -1.9520 c3         1 0ZT      -0.053100
     13 CG          -6.9480    -2.5380    -1.5610 ca         1 0ZT      -0.080300
     14 CD1         -7.9860    -1.9380    -2.3010 ca         1 0ZT      -0.102000
     15 CD2         -7.2670    -3.3390    -0.4470 ca         1 0ZT      -0.102000
     16 CE1         -9.3280    -2.1360    -1.9300 ca         1 0ZT      -0.110000
     17 CE2         -8.6080    -3.5370    -0.0760 ca         1 0ZT      -0.110000
     18 CZ          -9.6390    -2.9350    -0.8170 ca         1 0ZT      -0.113000
     19 CM          -2.4070    -0.5520    -0.1730 c3         1 0ZT       0.136800
     20 N1          -0.9670    -0.4840    -0.5210 n7         1 0ZT      -0.872400
     21 CA1         -0.0970     0.3480     0.3780 c3         1 0ZT       0.104500
     22 C5           1.2290     0.8360    -0.3260 c          1 0ZT       0.603100
     23 O            1.2900     0.9860    -1.5420 o          1 0ZT      -0.596100
     24 CB1          0.1050    -0.3150     1.7800 c3         1 0ZT      -0.024100
     25 CG1          0.9070    -1.6210     1.7980 ca         1 0ZT      -0.073300
     26 CD11         2.1540    -1.6770     2.4550 ca         1 0ZT      -0.091000
     27 CD21         0.3900    -2.8000     1.2210 ca         1 0ZT      -0.091000
     28 CE11         2.8790    -2.8800     2.5130 ca         1 0ZT      -0.117000
     29 CE21         1.1140    -4.0030     1.2790 ca         1 0ZT      -0.117000
     30 CZ1          2.3600    -4.0440     1.9250 ca         1 0ZT      -0.116000
     31 N2           2.3220     1.0980     0.4810 ns         1 0ZT      -0.486900
     32 CA2          3.5930     1.7080     0.0180 c3         1 0ZT       0.031700
     33 C6           4.8160     1.0370     0.7070 c          1 0ZT       0.590100
     34 O3           4.7250     0.3450     1.7140 o          1 0ZT      -0.628100
     35 CB2          3.5970     3.2450     0.2500 c3         1 0ZT      -0.061400
     36 CG2          2.4740     4.0210    -0.4890 c3         1 0ZT      -0.208400
     37 CD           2.6560     5.5350    -0.2890 c          1 0ZT       0.718000
     38 OE1          3.3610     6.1400    -1.0820 o          1 0ZT      -0.738000
     39 OE2          2.1350     6.0540     0.6860 o          1 0ZT      -0.738000
     40 N3           6.0300     1.2910     0.1010 ns         1 0ZT      -0.481900
     41 CA3          7.3200     0.6670     0.4780 c3         1 0ZT       0.037700
     42 C7           8.4560     1.7320     0.5200 c          1 0ZT       0.586100
     43 O4           8.3080     2.8980     0.1880 o          1 0ZT      -0.570100
     44 CB3          7.6650    -0.5190    -0.4640 c3         1 0ZT      -0.042100
     45 CG3          6.5400    -1.5420    -0.5880 ca         1 0ZT      -0.079300
     46 CD12         5.5840    -1.4310    -1.6190 ca         1 0ZT      -0.104000
     47 CD22         6.4440    -2.6050     0.3310 ca         1 0ZT      -0.104000
     48 CE12         4.5410    -2.3670    -1.7230 ca         1 0ZT      -0.106000
     49 CE22         5.4050    -3.5460     0.2200 ca         1 0ZT      -0.106000
     50 CZ2          4.4520    -3.4250    -0.8050 ca         1 0ZT      -0.113000
     51 N4           9.6700     1.3070     0.9450 nt         1 0ZT      -0.610000
     52 H11         -4.8470     3.5230     1.1230 hc         1 0ZT       0.048811
     53 H12         -5.8410     4.0040     2.5110 hc         1 0ZT       0.048811
     54 H13         -5.0280     2.4390     2.5200 hc         1 0ZT       0.048811
     55 H21         -8.4730     3.1930    -0.0430 hc         1 0ZT       0.048811
     56 H22         -7.9780     4.3790     1.1810 hc         1 0ZT       0.048811
     57 H23         -6.9850     4.1360    -0.2700 hc         1 0ZT       0.048811
     58 H31         -7.1550     1.0890     2.8430 hc         1 0ZT       0.048811
     59 H32         -8.2190     2.4950     2.8760 hc         1 0ZT       0.048811
     60 H33         -8.4930     1.2150     1.6790 hc         1 0ZT       0.048811
     61 H           -5.8930     0.2870    -1.5890 hn         1 0ZT       0.314500
     62 HA          -4.7610    -1.9290     0.0200 h1         1 0ZT       0.086700
     63 HC          -2.7980    -2.2320    -1.4570 h1         1 0ZT       0.086700
     64 HOS         -3.5530     0.3890    -2.3750 ho         1 0ZT       0.445000
     65 HB1         -5.4280    -1.8750    -2.9550 hc         1 0ZT       0.061700
     66 HB2         -4.9770    -3.2830    -2.0160 hc         1 0ZT       0.061700
     67 HD1         -7.7560    -1.3160    -3.1630 ha         1 0ZT       0.111000
     68 HD2         -6.4760    -3.8080     0.1340 ha         1 0ZT       0.111000
     69 HE1        -10.1250    -1.6700    -2.5040 ha         1 0ZT       0.109500
     70 HE2         -8.8480    -4.1550     0.7860 ha         1 0ZT       0.109500
     71 HZ         -10.6770    -3.0880    -0.5290 ha         1 0ZT       0.108000
     72 HM1         -2.8040     0.4590    -0.0050 h1         1 0ZT       0.039200
     73 HM2         -2.5520    -1.1210     0.7550 h1         1 0ZT       0.039200
     74 H1          -0.9080    -0.0810    -1.4680 hn         1 0ZT       0.457000
     75 HA1         -0.6280     1.2890     0.5780 h1         1 0ZT       0.041700
     76 HB21         0.5670     0.4200     2.4500 hc         1 0ZT       0.047700
     77 HB3         -0.8790    -0.5020     2.2250 hc         1 0ZT       0.047700
     78 HD11         2.5640    -0.7900     2.9320 ha         1 0ZT       0.117500
     79 HD21        -0.5810    -2.7900     0.7340 ha         1 0ZT       0.117500
     80 HE11         3.8420    -2.9080     3.0170 ha         1 0ZT       0.106500
     81 HE21         0.7060    -4.9050     0.8280 ha         1 0ZT       0.106500
     82 HZ1          2.9190    -4.9750     1.9710 ha         1 0ZT       0.099000
     83 H2           2.2260     0.8880     1.4670 hn         1 0ZT       0.322500
     84 HA2          3.7060     1.5160    -1.0570 h1         1 0ZT       0.080700
     85 HB22         3.5240     3.4450     1.3270 hc         1 0ZT       0.061700
     86 HB31         4.5650     3.6490    -0.0720 hc         1 0ZT       0.061700
     87 HG2          2.5770     3.7620    -1.5500 hc         1 0ZT       0.022200
     88 HG3          1.5270     3.6940    -0.0430 hc         1 0ZT       0.022200
     89 H3           6.0200     1.9150    -0.6980 hn         1 0ZT       0.327500
     90 HA3          7.2340     0.2730     1.4990 h1         1 0ZT       0.068700
     91 HB23         7.9130    -0.1210    -1.4560 hc         1 0ZT       0.059200
     92 HB32         8.5750    -1.0160    -0.1060 hc         1 0ZT       0.059200
     93 HD12         5.6450    -0.6140    -2.3340 ha         1 0ZT       0.110500
     94 HD22         7.1720    -2.7010     1.1330 ha         1 0ZT       0.110500
     95 HE12         3.8020    -2.2710    -2.5160 ha         1 0ZT       0.112500
     96 HE23         5.3370    -4.3650     0.9330 ha         1 0ZT       0.112500
     97 HZ2          3.6440    -4.1490    -0.8850 ha         1 0ZT       0.109000
     98 HN1          9.8040     0.3470     1.2280 hn         1 0ZT       0.308500
     99 HN2         10.4360     1.9640     0.9850 hn         1 0ZT       0.308500
@<TRIPOS>BOND
     1     1     2 2   
     2     2     3 1   
     3     2     8 1   
     4     3     4 1   
     5     4     5 1   
     6     4     6 1   
     7     4     7 1   
     8     5    52 1   
     9     5    53 1   
    10     5    54 1   
    11     6    55 1   
    12     6    56 1   
    13     6    57 1   
    14     7    58 1   
    15     7    59 1   
    16     7    60 1   
    17     8     9 1   
    18     8    61 1   
    19     9    10 1   
    20     9    12 1   
    21     9    62 1   
    22    10    11 1   
    23    10    19 1   
    24    10    63 1   
    25    11    64 1   
    26    12    13 1   
    27    12    65 1   
    28    12    66 1   
    29    13    14 ar  
    30    13    15 ar  
    31    14    16 ar  
    32    14    67 1   
    33    15    17 ar  
    34    15    68 1   
    35    16    18 ar  
    36    16    69 1   
    37    17    18 ar  
    38    17    70 1   
    39    18    71 1   
    40    19    20 1   
    41    19    72 1   
    42    19    73 1   
    43    20    21 1   
    44    20    74 1   
    45    21    22 1   
    46    21    24 1   
    47    21    75 1   
    48    22    23 2   
    49    22    31 1   
    50    24    25 1   
    51    24    76 1   
    52    24    77 1   
    53    25    26 ar  
    54    25    27 ar  
    55    26    28 ar  
    56    26    78 1   
    57    27    29 ar  
    58    27    79 1   
    59    28    30 ar  
    60    28    80 1   
    61    29    30 ar  
    62    29    81 1   
    63    30    82 1   
    64    31    32 1   
    65    31    83 1   
    66    32    33 1   
    67    32    35 1   
    68    32    84 1   
    69    33    34 2   
    70    33    40 1   
    71    35    36 1   
    72    35    85 1   
    73    35    86 1   
    74    36    37 1   
    75    36    87 1   
    76    36    88 1   
    77    37    38 1   
    78    37    39 1   
    79    40    41 1   
    80    40    89 1   
    81    41    42 1   
    82    41    44 1   
    83    41    90 1   
    84    42    43 2   
    85    42    51 1   
    86    44    45 1   
    87    44    91 1   
    88    44    92 1   
    89    45    46 ar  
    90    45    47 ar  
    91    46    48 ar  
    92    46    93 1   
    93    47    49 ar  
    94    47    94 1   
    95    48    50 ar  
    96    48    95 1   
    97    49    50 ar  
    98    49    96 1   
    99    50    97 1   
   100    51    98 1   
   101    51    99 1   
@<TRIPOS>SUBSTRUCTURE
     1 0ZT         1 TEMP              0 ****  ****    0 ROOT
