@<TRIPOS>MOLECULE
0ZZ
   68    69     1     0     0
SMALL
No Charge or Current Charge


@<TRIPOS>ATOM
      1 C2          -3.7440     0.9130    -2.1290 ca         1 0ZZ       0.186100
      2 C3          -4.1290     2.1530    -2.6870 ca         1 0ZZ      -0.204000
      3 C4          -5.4250     2.6510    -2.4770 ca         1 0ZZ      -0.045000
      4 C5          -6.3400     1.9170    -1.7080 ca         1 0ZZ      -0.067900
      5 C6          -5.9670     0.6850    -1.1480 ca         1 0ZZ      -0.043000
      6 O1          -2.4760     0.3920    -2.3130 os         1 0ZZ      -0.330100
      7 C7          -1.4390     1.1050    -3.0100 c3         1 0ZZ       0.129900
      8 Br1         -8.1030     2.5980    -1.4180 br         1 0ZZ      -0.132100
      9 C1          -4.6700     0.1740    -1.3560 ca         1 0ZZ      -0.107300
     10 C           -3.4790    -0.9400     0.5660 c          1 0ZZ       0.614100
     11 O           -4.0180    -0.6940     1.6360 o          1 0ZZ      -0.608100
     12 CH3         -4.2760    -1.1640    -0.7250 c3         1 0ZZ      -0.098100
     13 N           -2.1100    -1.0090     0.4270 ns         1 0ZZ      -0.481900
     14 CA          -1.1230    -0.8420     1.5210 c3         1 0ZZ       0.024700
     15 C8           0.1050    -0.0260     1.0170 c          1 0ZZ       0.598100
     16 O2           0.3040     0.2290    -0.1660 o          1 0ZZ      -0.632100
     17 CB          -0.7010    -2.2130     2.1420 c3         1 0ZZ      -0.065700
     18 CG1         -1.8710    -2.9290     2.8580 c3         1 0ZZ      -0.084600
     19 CG2         -0.0170    -3.1530     1.1190 c3         1 0ZZ      -0.084600
     20 N1           0.9690     0.4000     2.0030 ns         1 0ZZ      -0.461900
     21 CA1          2.2100     1.1470     1.7660 c3         1 0ZZ       0.097700
     22 C9           3.3160     0.2210     1.1560 c3         1 0ZZ       0.157300
     23 O3           3.6690    -0.8220     2.0880 oh         1 0ZZ      -0.660000
     24 CB1          2.6390     1.8980     3.0570 c3         1 0ZZ      -0.236400
     25 CG           1.5250     2.8440     3.5250 c          1 0ZZ       0.721000
     26 OD1          1.4890     3.9660     3.0440 o          1 0ZZ      -0.730000
     27 OD2          0.7070     2.4200     4.3260 o          1 0ZZ      -0.730000
     28 C11          4.5880     0.9950     0.7140 c3         1 0ZZ       0.032600
     29 S2           5.7250    -0.0550    -0.3110 ss         1 0ZZ      -0.433000
     30 C31          7.0710     1.1690    -0.6450 c3         1 0ZZ       0.102900
     31 C41          8.1680     0.5480    -1.4980 ca         1 0ZZ      -0.063300
     32 C51          8.1030     0.6240    -2.9040 ca         1 0ZZ      -0.094500
     33 C61          9.1170     0.0520    -3.6920 ca         1 0ZZ      -0.115000
     34 C71         10.2010    -0.5990    -3.0800 ca         1 0ZZ      -0.114000
     35 C81         10.2700    -0.6790    -1.6790 ca         1 0ZZ      -0.115000
     36 C91          9.2560    -0.1080    -0.8900 ca         1 0ZZ      -0.094500
     37 H3          -3.4400     2.7410    -3.2860 ha         1 0ZZ       0.126000
     38 H4          -5.7180     3.6060    -2.9080 ha         1 0ZZ       0.118000
     39 H6          -6.6840     0.1280    -0.5500 ha         1 0ZZ       0.120000
     40 H71         -0.5140     0.5160    -3.0200 h1         1 0ZZ       0.063700
     41 H72         -1.7280     1.3000    -4.0510 h1         1 0ZZ       0.063700
     42 H73         -1.2250     2.0620    -2.5170 h1         1 0ZZ       0.063700
     43 H1          -5.1760    -1.7420    -0.4840 hc         1 0ZZ       0.060200
     44 H2          -3.6680    -1.7310    -1.4400 hc         1 0ZZ       0.060200
     45 H           -1.7590    -1.1170    -0.5180 hn         1 0ZZ       0.329500
     46 HA          -1.5790    -0.2320     2.3120 h1         1 0ZZ       0.092700
     47 HB           0.0430    -2.0010     2.9210 hc         1 0ZZ       0.052700
     48 HG11        -2.6350    -3.2530     2.1420 hc         1 0ZZ       0.033200
     49 HG12        -1.5100    -3.8170     3.3920 hc         1 0ZZ       0.033200
     50 HG13        -2.3430    -2.2640     3.5920 hc         1 0ZZ       0.033200
     51 HG21         0.8640    -2.6770     0.6720 hc         1 0ZZ       0.033200
     52 HG22         0.3180    -4.0760     1.6090 hc         1 0ZZ       0.033200
     53 HG23        -0.7060    -3.4300     0.3130 hc         1 0ZZ       0.033200
     54 H5           0.7250     0.1710     2.9590 hn         1 0ZZ       0.316500
     55 HA1          1.9840     1.9120     1.0080 h1         1 0ZZ       0.105700
     56 HB2          2.8340     1.1370     3.8230 hc         1 0ZZ       0.027200
     57 HB3          3.5220     2.4880     2.7870 hc         1 0ZZ       0.027200
     58 H11          4.2890     1.8650     0.1160 h1         1 0ZZ       0.068200
     59 H12          5.1340     1.3590     1.5940 h1         1 0ZZ       0.068200
     60 H31          6.6470     2.0400    -1.1600 h1         1 0ZZ       0.063700
     61 H32          7.4920     1.5110     0.3100 h1         1 0ZZ       0.063700
     62 H51          7.2650     1.1240    -3.3850 ha         1 0ZZ       0.116500
     63 H61          9.0620     0.1140    -4.7770 ha         1 0ZZ       0.107500
     64 H7          10.9860    -1.0410    -3.6900 ha         1 0ZZ       0.105000
     65 H8          11.1090    -1.1840    -1.2040 ha         1 0ZZ       0.107500
     66 H9           9.3150    -0.1760     0.1940 ha         1 0ZZ       0.116500
     67 H80          2.8950    -0.2310     0.2480 h1         1 0ZZ       0.079700
     68 H81          3.9410    -0.3800     2.9200 ho         1 0ZZ       0.442000
@<TRIPOS>BOND
     1     1     2 ar  
     2     1     6 1   
     3     1     9 ar  
     4     2     3 ar  
     5     2    37 1   
     6     3     4 ar  
     7     3    38 1   
     8     4     5 ar  
     9     4     8 1   
    10     5     9 ar  
    11     5    39 1   
    12     6     7 1   
    13     7    40 1   
    14     7    41 1   
    15     7    42 1   
    16     9    12 1   
    17    10    11 2   
    18    10    12 1   
    19    10    13 1   
    20    12    43 1   
    21    12    44 1   
    22    13    14 1   
    23    13    45 1   
    24    14    15 1   
    25    14    17 1   
    26    14    46 1   
    27    15    16 2   
    28    15    20 1   
    29    17    18 1   
    30    17    19 1   
    31    17    47 1   
    32    18    48 1   
    33    18    49 1   
    34    18    50 1   
    35    19    51 1   
    36    19    52 1   
    37    19    53 1   
    38    20    21 1   
    39    20    54 1   
    40    21    22 1   
    41    21    24 1   
    42    21    55 1   
    43    22    23 1   
    44    22    28 1   
    45    22    67 1   
    46    23    68 1   
    47    24    25 1   
    48    24    56 1   
    49    24    57 1   
    50    25    26 1   
    51    25    27 1   
    52    28    29 1   
    53    28    58 1   
    54    28    59 1   
    55    29    30 1   
    56    30    31 1   
    57    30    60 1   
    58    30    61 1   
    59    31    32 ar  
    60    31    36 ar  
    61    32    33 ar  
    62    32    62 1   
    63    33    34 ar  
    64    33    63 1   
    65    34    35 ar  
    66    34    64 1   
    67    35    36 ar  
    68    35    65 1   
    69    36    66 1   
@<TRIPOS>SUBSTRUCTURE
     1 0ZZ         1 TEMP              0 ****  ****    0 ROOT
