@<TRIPOS>MOLECULE
0ZZ
   68    69     1     0     0
SMALL
bcc


@<TRIPOS>ATOM
      1 C2          -4.6330     1.5770    -0.8820 ca         1 0ZZ       0.186100
      2 C3          -5.5610     2.6110    -0.8520 ca         1 0ZZ      -0.222000
      3 C4          -6.9230     2.3300    -0.8470 ca         1 0ZZ      -0.063000
      4 C5          -7.3460     1.0150    -0.8690 ca         1 0ZZ      -0.067900
      5 C6          -6.4240    -0.0250    -0.8960 ca         1 0ZZ      -0.061000
      6 O1          -3.3030     1.7500    -0.8880 os         1 0ZZ      -0.306900
      7 C7          -2.7770     3.0550    -0.7270 c3         1 0ZZ       0.106700
      8 BR1         -9.1950     0.6190    -0.8580 br         1 0ZZ      -0.132100
      9 C1          -5.0670     0.2430    -0.9050 ca         1 0ZZ      -0.107300
     10 C           -3.1190    -0.8210     0.2460 c          1 0ZZ       0.681100
     11 O           -3.5210    -0.5410     1.3640 o          1 0ZZ      -0.608100
     12 CH3         -4.0570    -0.8640    -0.9500 c3         1 0ZZ      -0.098100
     13 N           -1.8480    -1.1530    -0.0330 ns         1 0ZZ      -0.548900
     14 CA          -0.7580    -1.0280     0.9010 c3         1 0ZZ       0.024700
     15 C8           0.3770    -0.2830     0.1990 c          1 0ZZ       0.665100
     16 O2           0.5060    -0.3250    -1.0170 o          1 0ZZ      -0.632100
     17 CB          -0.2700    -2.3860     1.4500 c3         1 0ZZ      -0.065700
     18 CG1         -1.3830    -3.0800     2.2250 c3         1 0ZZ      -0.084600
     19 CG2          0.2810    -3.2980     0.3580 c3         1 0ZZ      -0.084600
     20 N1           1.2080     0.3670     1.0180 ns         1 0ZZ      -0.528900
     21 CA1          2.3510     1.1410     0.5750 c3         1 0ZZ       0.097700
     22 C9           3.6310     0.3020     0.7140 c3         1 0ZZ       0.134100
     23 O3           3.9140    -0.0350     2.0530 oh         1 0ZZ      -0.597800
     24 CB1          2.3730     2.4620     1.3280 c3         1 0ZZ      -0.236400
     25 CG           1.1580     3.3640     1.0100 c          1 0ZZ       0.931600
     26 OD1          0.7330     3.3340    -0.1610 o          1 0ZZ      -0.835300
     27 OD2          0.7390     4.0740     1.9440 o          1 0ZZ      -0.835300
     28 C11          4.8160     0.9690     0.0290 c3         1 0ZZ      -0.015300
     29 S2           6.2690    -0.1160     0.1330 ss         1 0ZZ      -0.337200
     30 C31          7.3830     0.7750    -1.0010 c3         1 0ZZ       0.055000
     31 C41          8.6670     0.0110    -1.1060 ca         1 0ZZ      -0.063300
     32 C51          8.8130    -0.9980    -2.0540 ca         1 0ZZ      -0.112500
     33 C61          9.9940    -1.7230    -2.1380 ca         1 0ZZ      -0.133000
     34 C71         11.0420    -1.4510    -1.2680 ca         1 0ZZ      -0.132000
     35 C81         10.9020    -0.4510    -0.3140 ca         1 0ZZ      -0.133000
     36 C91          9.7200     0.2720    -0.2330 ca         1 0ZZ      -0.112500
     37 H3          -5.2500     3.6470    -0.8340 ha         1 0ZZ       0.144000
     38 H4          -7.6310     3.1470    -0.8240 ha         1 0ZZ       0.136000
     39 H6          -6.7570    -1.0560    -0.9100 ha         1 0ZZ       0.138000
     40 H71         -1.6960     2.9560    -0.6520 h1         1 0ZZ       0.063700
     41 H72         -3.0220     3.6960    -1.5770 h1         1 0ZZ       0.063700
     42 H73         -3.1470     3.5260     0.1870 h1         1 0ZZ       0.063700
     43 H1          -4.5720    -1.8280    -0.9320 hc         1 0ZZ       0.060200
     44 H2          -3.4940    -0.8340    -1.8870 hc         1 0ZZ       0.060200
     45 H           -1.5870    -1.2600    -1.0010 hn         1 0ZZ       0.329500
     46 HA          -1.1100    -0.4320     1.7470 h1         1 0ZZ       0.092700
     47 HB           0.5390    -2.1660     2.1550 hc         1 0ZZ       0.052700
     48 HG11        -2.2080    -3.3640     1.5690 hc         1 0ZZ       0.033200
     49 HG12        -1.0060    -3.9910     2.6930 hc         1 0ZZ       0.033200
     50 HG13        -1.7840    -2.4430     3.0130 hc         1 0ZZ       0.033200
     51 HG21         1.1730    -2.8910    -0.1190 hc         1 0ZZ       0.033200
     52 HG22         0.5520    -4.2660     0.7800 hc         1 0ZZ       0.033200
     53 HG23        -0.4640    -3.4790    -0.4200 hc         1 0ZZ       0.033200
     54 H5           1.0190     0.3470     2.0090 hn         1 0ZZ       0.316500
     55 HA1          2.2020     1.3510    -0.4840 h1         1 0ZZ       0.105700
     56 HB2          2.4350     2.2920     2.4070 hc         1 0ZZ       0.027200
     57 HB3          3.2750     3.0210     1.0560 hc         1 0ZZ       0.027200
     58 H11          4.5800     1.1480    -1.0220 h1         1 0ZZ       0.068200
     59 H12          5.0570     1.9320     0.4870 h1         1 0ZZ       0.068200
     60 H31          6.8990     0.8660    -1.9750 h1         1 0ZZ       0.063700
     61 H32          7.5560     1.7810    -0.6130 h1         1 0ZZ       0.063700
     62 H51          8.0000    -1.2150    -2.7370 ha         1 0ZZ       0.134500
     63 H61         10.0960    -2.5000    -2.8850 ha         1 0ZZ       0.125500
     64 H7          11.9640    -2.0150    -1.3340 ha         1 0ZZ       0.123000
     65 H8          11.7150    -0.2320     0.3660 ha         1 0ZZ       0.125500
     66 H9           9.6160     1.0530     0.5110 ha         1 0ZZ       0.134500
     67 H80          3.4450    -0.6510     0.2070 h1         1 0ZZ       0.079700
     68 H81          4.1960     0.7590     2.5200 ho         1 0ZZ       0.403000
@<TRIPOS>BOND
     1     1     2 ar  
     2     1     6 1   
     3     1     9 ar  
     4     2     3 ar  
     5     2    37 1   
     6     3     4 ar  
     7     3    38 1   
     8     4     5 ar  
     9     4     8 1   
    10     5     9 ar  
    11     5    39 1   
    12     6     7 1   
    13     7    40 1   
    14     7    41 1   
    15     7    42 1   
    16     9    12 1   
    17    10    11 2   
    18    10    12 1   
    19    10    13 1   
    20    12    43 1   
    21    12    44 1   
    22    13    14 1   
    23    13    45 1   
    24    14    15 1   
    25    14    17 1   
    26    14    46 1   
    27    15    16 2   
    28    15    20 1   
    29    17    18 1   
    30    17    19 1   
    31    17    47 1   
    32    18    48 1   
    33    18    49 1   
    34    18    50 1   
    35    19    51 1   
    36    19    52 1   
    37    19    53 1   
    38    20    21 1   
    39    20    54 1   
    40    21    22 1   
    41    21    24 1   
    42    21    55 1   
    43    22    23 1   
    44    22    28 1   
    45    22    67 1   
    46    23    68 1   
    47    24    25 1   
    48    24    56 1   
    49    24    57 1   
    50    25    26 1   
    51    25    27 1   
    52    28    29 1   
    53    28    58 1   
    54    28    59 1   
    55    29    30 1   
    56    30    31 1   
    57    30    60 1   
    58    30    61 1   
    59    31    32 ar  
    60    31    36 ar  
    61    32    33 ar  
    62    32    62 1   
    63    33    34 ar  
    64    33    63 1   
    65    34    35 ar  
    66    34    64 1   
    67    35    36 ar  
    68    35    65 1   
    69    36    66 1   
@<TRIPOS>SUBSTRUCTURE
     1 0ZZ         1 TEMP              0 ****  ****    0 ROOT
