@<TRIPOS>MOLECULE
T00
   47    48     1     0     0
SMALL
No Charge or Current Charge


@<TRIPOS>ATOM
      1 N1          -2.5900     1.7370     0.0340 n8         1 T00      -1.010200
      2 C1          -2.1740     0.3090    -0.0220 c3         1 T00       0.141500
      3 C2          -0.7270     0.1340    -0.6110 c3         1 T00       0.117300
      4 O1          -0.3600    -1.2660    -0.6400 oh         1 T00      -0.658000
      5 C3          -3.2450    -0.5220    -0.7890 c3         1 T00      -0.028100
      6 C4          -4.6450    -0.4540    -0.1780 ca         1 T00      -0.049300
      7 C5          -5.6990     0.1800    -0.8670 ca         1 T00      -0.100500
      8 C6          -4.9000    -1.0490     1.0750 ca         1 T00      -0.100500
      9 C7          -6.9880     0.2250    -0.3070 ca         1 T00      -0.116000
     10 C8          -6.1890    -1.0030     1.6340 ca         1 T00      -0.116000
     11 C9          -7.2330    -0.3660     0.9440 ca         1 T00      -0.123000
     12 C10          0.3580     0.9300     0.1790 c3         1 T00       0.140800
     13 N2           1.7040     0.7300    -0.4050 n7         1 T00      -0.825400
     14 C11          2.8530     1.2500     0.4120 c3         1 T00       0.036500
     15 C12          2.8660     2.8200     0.6330 c          1 T00       0.717000
     16 O2           3.3530     3.5430    -0.2290 o          1 T00      -0.722500
     17 C13          4.1830     0.7460    -0.2070 c3         1 T00      -0.031100
     18 C14          4.3010    -0.7770    -0.2140 ca         1 T00      -0.057300
     19 C15          4.1520    -1.5000    -1.4140 ca         1 T00      -0.112500
     20 C16          4.5600    -1.4730     0.9830 ca         1 T00      -0.112500
     21 C17          4.2590    -2.9020    -1.4160 ca         1 T00      -0.121000
     22 C18          4.6680    -2.8750     0.9810 ca         1 T00      -0.121000
     23 C19          4.5170    -3.5900    -0.2190 ca         1 T00      -0.137000
     24 O3           2.4200     3.2580     1.6870 o          1 T00      -0.722500
     25 H1          -1.8870     2.2830     0.5420 hn         1 T00       0.407000
     26 H2          -2.1520    -0.0570     1.0150 h1         1 T00       0.048700
     27 H3          -0.7390     0.5260    -1.6380 h1         1 T00       0.086700
     28 H4          -0.2490    -1.5570     0.2910 ho         1 T00       0.428000
     29 H5          -3.2680    -0.1930    -1.8360 hc         1 T00       0.052700
     30 H6          -2.9360    -1.5730    -0.8180 hc         1 T00       0.052700
     31 H7          -5.5190     0.6400    -1.8360 ha         1 T00       0.110000
     32 H8          -4.0990    -1.5490     1.6140 ha         1 T00       0.110000
     33 H9          -7.7960     0.7180    -0.8430 ha         1 T00       0.102500
     34 H10         -6.3780    -1.4640     2.6010 ha         1 T00       0.102500
     35 H11         -8.2310    -0.3310     1.3760 ha         1 T00       0.101000
     36 H12          0.1080     2.0000     0.1750 h1         1 T00       0.032700
     37 H13          0.3440     0.5930     1.2250 h1         1 T00       0.032700
     38 H14          1.8330    -0.2820    -0.5230 hn         1 T00       0.385000
     39 H15          2.7880     0.8020     1.4140 h1         1 T00       0.004700
     40 H16          4.2850     1.1440    -1.2240 hc         1 T00       0.063200
     41 H17          5.0170     1.1690     0.3670 hc         1 T00       0.063200
     42 H18          3.9490    -0.9770    -2.3460 ha         1 T00       0.118000
     43 H19          4.6770    -0.9270     1.9170 ha         1 T00       0.118000
     44 H20          4.1420    -3.4540    -2.3460 ha         1 T00       0.097000
     45 H21          4.8670    -3.4060     1.9090 ha         1 T00       0.097000
     46 H22          4.6000    -4.6740    -0.2210 ha         1 T00       0.094000
     47 H24         -2.5750     2.1350    -0.9120 hn         1 T00       0.407000
@<TRIPOS>BOND
     1     1     2 1   
     2     1    25 1   
     3     1    47 1   
     4     2     3 1   
     5     2     5 1   
     6     2    26 1   
     7     3     4 1   
     8     3    12 1   
     9     3    27 1   
    10     4    28 1   
    11     5     6 1   
    12     5    29 1   
    13     5    30 1   
    14     6     7 ar  
    15     6     8 ar  
    16     7     9 ar  
    17     7    31 1   
    18     8    10 ar  
    19     8    32 1   
    20     9    11 ar  
    21     9    33 1   
    22    10    11 ar  
    23    10    34 1   
    24    11    35 1   
    25    12    13 1   
    26    12    36 1   
    27    12    37 1   
    28    13    14 1   
    29    13    38 1   
    30    14    15 1   
    31    14    17 1   
    32    14    39 1   
    33    15    16 1   
    34    15    24 1   
    35    17    18 1   
    36    17    40 1   
    37    17    41 1   
    38    18    19 ar  
    39    18    20 ar  
    40    19    21 ar  
    41    19    42 1   
    42    20    22 ar  
    43    20    43 1   
    44    21    23 ar  
    45    21    44 1   
    46    22    23 ar  
    47    22    45 1   
    48    23    46 1   
@<TRIPOS>SUBSTRUCTURE
     1 T00         1 TEMP              0 ****  ****    0 ROOT
