@<TRIPOS>MOLECULE
T00
   47    48     1     0     0
SMALL
bcc


@<TRIPOS>ATOM
      1 N1          -2.5100     1.7490     0.1340 n8         1 T00      -0.899800
      2 C1          -2.1310     0.3690    -0.1020 c3         1 T00       0.141500
      3 C2          -0.7290     0.1800    -0.7150 c3         1 T00       0.094100
      4 O1          -0.4130    -1.1960    -0.8460 oh         1 T00      -0.595800
      5 C3          -3.1980    -0.3040    -0.9750 c3         1 T00      -0.028100
      6 C4          -4.5300    -0.3950    -0.2900 ca         1 T00      -0.049300
      7 C5          -5.5230     0.5580    -0.4990 ca         1 T00      -0.118500
      8 C6          -4.7920    -1.4370     0.5980 ca         1 T00      -0.118500
      9 C7          -6.7450     0.4710     0.1540 ca         1 T00      -0.134000
     10 C8          -6.0090    -1.5260     1.2590 ca         1 T00      -0.134000
     11 C9          -6.9930    -0.5700     1.0390 ca         1 T00      -0.141000
     12 C10          0.3500     0.9100     0.0780 c3         1 T00       0.140800
     13 N2           1.6590     0.6790    -0.4900 n7         1 T00      -0.770200
     14 C11          2.7330     1.2450     0.2950 c3         1 T00       0.036500
     15 C12          2.7760     2.7930     0.2520 c          1 T00       0.927600
     16 O2           2.2160     3.3700    -0.6960 o          1 T00      -0.827800
     17 C13          4.0830     0.7170    -0.2170 c3         1 T00      -0.031100
     18 C14          4.2070    -0.7780    -0.1030 ca         1 T00      -0.057300
     19 C15          4.0530    -1.6070    -1.2110 ca         1 T00      -0.130500
     20 C16          4.4470    -1.3700     1.1380 ca         1 T00      -0.130500
     21 C17          4.1360    -2.9900    -1.0870 ca         1 T00      -0.139000
     22 C18          4.5330    -2.7480     1.2670 ca         1 T00      -0.139000
     23 C19          4.3770    -3.5650     0.1520 ca         1 T00      -0.155000
     24 O3           3.4180     3.3290     1.1790 o          1 T00      -0.827800
     25 H1          -1.9100     2.1740     0.8290 hn         1 T00       0.351800
     26 H2          -2.1260    -0.1320     0.8760 h1         1 T00       0.048700
     27 H3          -0.7340     0.5760    -1.7370 h1         1 T00       0.086700
     28 H4          -0.4360    -1.5920     0.0330 ho         1 T00       0.389000
     29 H5          -3.2920     0.2600    -1.9090 hc         1 T00       0.052700
     30 H6          -2.8580    -1.3040    -1.2490 hc         1 T00       0.052700
     31 H7          -5.3400     1.3730    -1.1890 ha         1 T00       0.128000
     32 H8          -4.0320    -2.1910     0.7720 ha         1 T00       0.128000
     33 H9          -7.5070     1.2190    -0.0280 ha         1 T00       0.120500
     34 H10         -6.1920    -2.3460     1.9430 ha         1 T00       0.120500
     35 H11         -7.9450    -0.6390     1.5490 ha         1 T00       0.119000
     36 H12          0.1480     1.9810     0.0570 h1         1 T00       0.032700
     37 H13          0.2840     0.5990     1.1390 h1         1 T00       0.032700
     38 H14          1.7960    -0.3230    -0.5550 hn         1 T00       0.329800
     39 H15          2.6510     0.9570     1.3590 h1         1 T00       0.004700
     40 H16          4.2120     1.0230    -1.2580 hc         1 T00       0.063200
     41 H17          4.8750     1.1950     0.3610 hc         1 T00       0.063200
     42 H18          3.8660    -1.1690    -2.1850 ha         1 T00       0.136000
     43 H19          4.5700    -0.7420     2.0130 ha         1 T00       0.136000
     44 H20          4.0140    -3.6160    -1.9620 ha         1 T00       0.115000
     45 H21          4.7250    -3.1870     2.2370 ha         1 T00       0.115000
     46 H22          4.4440    -4.6410     0.2510 ha         1 T00       0.112000
     47 H24         -2.4040     2.2950    -0.7130 hn         1 T00       0.351800
@<TRIPOS>BOND
     1     1     2 1   
     2     1    25 1   
     3     1    47 1   
     4     2     3 1   
     5     2     5 1   
     6     2    26 1   
     7     3     4 1   
     8     3    12 1   
     9     3    27 1   
    10     4    28 1   
    11     5     6 1   
    12     5    29 1   
    13     5    30 1   
    14     6     7 ar  
    15     6     8 ar  
    16     7     9 ar  
    17     7    31 1   
    18     8    10 ar  
    19     8    32 1   
    20     9    11 ar  
    21     9    33 1   
    22    10    11 ar  
    23    10    34 1   
    24    11    35 1   
    25    12    13 1   
    26    12    36 1   
    27    12    37 1   
    28    13    14 1   
    29    13    38 1   
    30    14    15 1   
    31    14    17 1   
    32    14    39 1   
    33    15    16 1   
    34    15    24 1   
    35    17    18 1   
    36    17    40 1   
    37    17    41 1   
    38    18    19 ar  
    39    18    20 ar  
    40    19    21 ar  
    41    19    42 1   
    42    20    22 ar  
    43    20    43 1   
    44    21    23 ar  
    45    21    44 1   
    46    22    23 ar  
    47    22    45 1   
    48    23    46 1   
@<TRIPOS>SUBSTRUCTURE
     1 T00         1 TEMP              0 ****  ****    0 ROOT
