@<TRIPOS>MOLECULE
T02
   38    40     1     0     0
SMALL
bcc


@<TRIPOS>ATOM
      1 C01         11.5750   -11.9410   -29.3130 ca         1 T02       0.440600
      2 C02         12.0250   -11.7330   -27.9970 ca         1 T02      -0.279300
      3 C03         13.3590   -11.8570   -27.6550 ca         1 T02      -0.005600
      4 C04         14.2320   -12.1700   -28.7080 ca         1 T02      -0.304200
      5 C06         13.6740   -12.3320   -29.9840 ca         1 T02       0.446800
      6 C07         15.6410   -12.3390   -28.9080 cc         1 T02       0.428900
      7 C09         10.1140   -11.8290   -29.6260 c3         1 T02      -0.140400
      8 C10         13.7860   -11.6830   -26.2050 c          1 T02       0.927200
      9 C11         16.7490   -12.2290   -27.9070 c3         1 T02      -0.083000
     10 C13         18.0610   -12.8130   -28.4160 c3         1 T02      -0.078600
     11 C14         16.9350   -10.7650   -27.4950 c3         1 T02      -0.078600
     12 C17         13.5960   -13.2800   -32.8840 ca         1 T02      -0.134500
     13 C18         13.6130   -13.4310   -34.2620 ca         1 T02      -0.114500
     14 C19         14.7430   -13.0750   -34.9790 ca         1 T02      -0.002600
     15 C21         15.8580   -12.5650   -34.3330 ca         1 T02      -0.114500
     16 C22         15.8360   -12.4020   -32.9580 ca         1 T02      -0.134500
     17 C23         14.7060   -12.7570   -32.2250 ca         1 T02       0.077800
     18 N05         12.3930   -12.2380   -30.3120 nb         1 T02      -0.733000
     19 N08         15.8850   -12.5820   -30.1670 nd         1 T02      -0.562100
     20 N12         14.7110   -12.5900   -30.8330 na         1 T02       0.039100
     21 O15         14.3470   -12.6650   -25.6900 o          1 T02      -0.806800
     22 O16         13.5020   -10.5900   -25.6890 o          1 T02      -0.806800
     23 H1          11.2940   -11.4820   -27.2370 ha         1 T02       0.145000
     24 H2           9.9290   -12.0040   -30.6830 hc         1 T02       0.040367
     25 H3           9.5370   -12.5540   -29.0500 hc         1 T02       0.040367
     26 H4           9.7330   -10.8410   -29.3660 hc         1 T02       0.040367
     27 H5          16.4370   -12.7850   -27.0210 hc         1 T02       0.106700
     28 H6          18.8180   -12.7560   -27.6330 hc         1 T02       0.031700
     29 H7          17.9560   -13.8590   -28.7050 hc         1 T02       0.031700
     30 H8          18.4350   -12.2630   -29.2800 hc         1 T02       0.031700
     31 H9          17.6830   -10.6850   -26.7050 hc         1 T02       0.031700
     32 H10         17.2770   -10.1670   -28.3420 hc         1 T02       0.031700
     33 H11         16.0140   -10.3190   -27.1220 hc         1 T02       0.031700
     34 H12         12.7160   -13.5750   -32.3340 ha         1 T02       0.163000
     35 H13         12.7470   -13.8380   -34.7650 ha         1 T02       0.137500
     36 H14         16.7400   -12.2850   -34.8930 ha         1 T02       0.137500
     37 H15         16.7040   -11.9960   -32.4580 ha         1 T02       0.163000
     38 CL          14.7640   -13.2680   -36.7010 cl         1 T02      -0.142400
@<TRIPOS>BOND
     1     1     2 ar  
     2     1     7 1   
     3     1    18 ar  
     4     2     3 ar  
     5     2    23 1   
     6     3     4 ar  
     7     3     8 1   
     8     4     5 ar  
     9     4     6 1   
    10     5    18 ar  
    11     5    20 1   
    12     6     9 1   
    13     6    19 2   
    14     7    24 1   
    15     7    25 1   
    16     7    26 1   
    17     8    21 1   
    18     8    22 1   
    19     9    10 1   
    20     9    11 1   
    21     9    27 1   
    22    10    28 1   
    23    10    29 1   
    24    10    30 1   
    25    11    31 1   
    26    11    32 1   
    27    11    33 1   
    28    12    13 ar  
    29    12    17 ar  
    30    12    34 1   
    31    13    14 ar  
    32    13    35 1   
    33    14    15 ar  
    34    14    38 1   
    35    15    16 ar  
    36    15    36 1   
    37    16    17 ar  
    38    16    37 1   
    39    17    20 1   
    40    19    20 1   
@<TRIPOS>SUBSTRUCTURE
     1 T02         1 TEMP              0 ****  ****    0 ROOT
