@<TRIPOS>MOLECULE
T02
   38    40     1     0     0
SMALL
No Charge or Current Charge


@<TRIPOS>ATOM
      1 C01         11.6020   -11.7480   -29.3570 ca         1 T02       0.375300
      2 C02         12.0380   -11.6520   -28.0220 ca         1 T02      -0.196000
      3 C03         13.3970   -11.8660   -27.7050 ca         1 T02      -0.005600
      4 C04         14.2400   -12.1560   -28.8040 ca         1 T02      -0.238900
      5 C06         13.7360   -12.2520   -30.0760 ca         1 T02       0.381500
      6 C07         15.6730   -12.4050   -28.9170 cc         1 T02       0.428900
      7 C09         10.1450   -11.5330   -29.7220 c3         1 T02      -0.140400
      8 C10         13.8480   -11.8070   -26.2610 c          1 T02       0.716600
      9 C11         16.7160   -12.2470   -27.8240 c3         1 T02      -0.083000
     10 C13         18.0440   -12.9960   -28.1130 c3         1 T02      -0.078600
     11 C14         16.9890   -10.7550   -27.5190 c3         1 T02      -0.078600
     12 C17         13.9200   -13.7740   -32.7790 ca         1 T02      -0.116500
     13 C18         13.8440   -13.9670   -34.1710 ca         1 T02      -0.096500
     14 C19         14.5950   -13.1530   -35.0340 ca         1 T02       0.089000
     15 C21         15.4240   -12.1470   -34.5110 ca         1 T02      -0.096500
     16 C22         15.5000   -11.9530   -33.1200 ca         1 T02      -0.116500
     17 C23         14.7460   -12.7630   -32.2470 ca         1 T02       0.077800
     18 N05         12.4330   -12.0530   -30.3790 nb         1 T02      -0.733000
     19 N08         16.0330   -12.6580   -30.1830 nd         1 T02      -0.562100
     20 N12         14.8290   -12.5710   -30.8660 na         1 T02       0.039100
     21 O15         14.1250   -12.8590   -25.7030 o          1 T02      -0.701500
     22 O16         13.8040   -10.7270   -25.6880 o          1 T02      -0.701500
     23 H1          11.3260   -11.4230   -27.2350 ha         1 T02       0.127000
     24 H2          10.0460   -11.0000   -30.6750 hc         1 T02       0.040367
     25 H3           9.6230   -12.4920   -29.8160 hc         1 T02       0.040367
     26 H4           9.6270   -10.9420   -28.9590 hc         1 T02       0.040367
     27 H5          16.3190   -12.7050   -26.9150 hc         1 T02       0.106700
     28 H6          18.7210   -12.9270   -27.2540 hc         1 T02       0.031700
     29 H7          17.8540   -14.0590   -28.3080 hc         1 T02       0.031700
     30 H8          18.5570   -12.5720   -28.9850 hc         1 T02       0.031700
     31 H9          17.6700   -10.6510   -26.6650 hc         1 T02       0.031700
     32 H10         17.4450   -10.2610   -28.3850 hc         1 T02       0.031700
     33 H11         16.0610   -10.2250   -27.2790 hc         1 T02       0.031700
     34 H12         13.3370   -14.4070   -32.1140 ha         1 T02       0.145000
     35 H13         13.2040   -14.7460   -34.5790 ha         1 T02       0.119500
     36 H14         16.0060   -11.5190   -35.1820 ha         1 T02       0.119500
     37 H15         16.1440   -11.1740   -32.7170 ha         1 T02       0.145000
     38 Cl          14.5000   -13.3960   -36.7730 cl         1 T02      -0.234000
@<TRIPOS>BOND
     1     1     2 ar  
     2     1     7 1   
     3     1    18 ar  
     4     2     3 ar  
     5     2    23 1   
     6     3     4 ar  
     7     3     8 1   
     8     4     5 ar  
     9     4     6 1   
    10     5    18 ar  
    11     5    20 1   
    12     6     9 1   
    13     6    19 2   
    14     7    24 1   
    15     7    25 1   
    16     7    26 1   
    17     8    21 1   
    18     8    22 1   
    19     9    10 1   
    20     9    11 1   
    21     9    27 1   
    22    10    28 1   
    23    10    29 1   
    24    10    30 1   
    25    11    31 1   
    26    11    32 1   
    27    11    33 1   
    28    12    13 ar  
    29    12    17 ar  
    30    12    34 1   
    31    13    14 ar  
    32    13    35 1   
    33    14    15 ar  
    34    14    38 1   
    35    15    16 ar  
    36    15    36 1   
    37    16    17 ar  
    38    16    37 1   
    39    17    20 1   
    40    19    20 1   
@<TRIPOS>SUBSTRUCTURE
     1 T02         1 TEMP              0 ****  ****    0 ROOT
