@<TRIPOS>MOLECULE
T03
   22    23     1     0     0
SMALL
No Charge or Current Charge


@<TRIPOS>ATOM
      1 F           -5.3760     0.3520     0.1410 f          1 T03      -0.176000
      2 S            1.1750     0.7040     0.2560 ss         1 T03      -0.350300
      3 C1          -1.3040    -0.4610    -0.1790 ca         1 T03      -0.110300
      4 N1           3.8750     0.9590     0.3450 na         1 T03      -0.493000
      5 C2          -2.0010     0.1090    -1.2640 ca         1 T03      -0.064000
      6 N2           4.6070    -0.9870    -0.3950 nc         1 T03      -0.351000
      7 C3          -3.3760     0.3830    -1.1550 ca         1 T03      -0.154000
      8 N3           3.2230    -1.0230    -0.4050 nc         1 T03      -0.377000
      9 C4          -4.0550     0.0880     0.0370 ca         1 T03       0.182000
     10 C5          -3.3690    -0.4780     1.1220 ca         1 T03      -0.154000
     11 C6          -1.9940    -0.7520     1.0150 ca         1 T03      -0.064000
     12 C8           4.9860     0.2080     0.0570 cd         1 T03       0.375400
     13 C9           2.8330     0.1520     0.0420 cd         1 T03       0.481800
     14 H2          -1.4770     0.3430    -2.1890 ha         1 T03       0.123000
     15 H3          -3.9140     0.8230    -1.9900 ha         1 T03       0.135000
     16 H5          -3.9020    -0.7020     2.0420 ha         1 T03       0.135000
     17 H6          -1.4640    -1.1890     1.8610 ha         1 T03       0.123000
     18 H7           0.4400    -0.9940    -1.3360 h1         1 T03       0.089700
     19 H7A          0.4450    -1.6240     0.3240 h1         1 T03       0.089700
     20 H81          3.8400     1.9010     0.7030 hn         1 T03       0.369000
     21 C7           0.1850    -0.7560    -0.2950 c3         1 T03       0.122900
     22 H8           5.9980     0.5710     0.1920 h5         1 T03       0.066100
@<TRIPOS>BOND
     1     1     9 1   
     2     2    13 1   
     3     2    21 1   
     4     3     5 ar  
     5     3    11 ar  
     6     3    21 1   
     7     4    12 1   
     8     4    13 1   
     9     4    20 1   
    10     5     7 ar  
    11     5    14 1   
    12     6     8 1   
    13     6    12 2   
    14     7     9 ar  
    15     7    15 1   
    16     8    13 2   
    17     9    10 ar  
    18    10    11 ar  
    19    10    16 1   
    20    11    17 1   
    21    12    22 1   
    22    18    21 1   
    23    19    21 1   
@<TRIPOS>SUBSTRUCTURE
     1 T03         1 TEMP              0 ****  ****    0 ROOT
