@<TRIPOS>MOLECULE
T03
   22    23     1     0     0
SMALL
abcg2


@<TRIPOS>ATOM
      1 F           -5.2740     0.3560     0.1550 f          1 T03      -0.176000
      2 S            1.0910     0.7270     0.2350 ss         1 T03      -0.350300
      3 C1          -1.2690    -0.4740    -0.1900 ca         1 T03      -0.110300
      4 N1           3.7990     0.9540     0.3390 na         1 T03      -0.493000
      5 C2          -1.9660     0.1010    -1.2490 ca         1 T03      -0.064000
      6 N2           4.4920    -0.9800    -0.3670 nc         1 T03      -0.351000
      7 C3          -3.3190     0.3850    -1.1430 ca         1 T03      -0.154000
      8 N3           3.1300    -0.9870    -0.3800 nc         1 T03      -0.377000
      9 C4          -3.9630     0.0900     0.0430 ca         1 T03       0.182000
     10 C5          -3.3030    -0.4740     1.1180 ca         1 T03      -0.154000
     11 C6          -1.9500    -0.7500     0.9920 ca         1 T03      -0.064000
     12 C8           4.8760     0.1820     0.0630 cd         1 T03       0.375400
     13 C9           2.7310     0.1790     0.0460 cd         1 T03       0.481800
     14 H2          -1.4510     0.3260    -2.1750 ha         1 T03       0.123000
     15 H3          -3.8610     0.8250    -1.9700 ha         1 T03       0.135000
     16 H5          -3.8330    -0.6970     2.0350 ha         1 T03       0.135000
     17 H6          -1.4220    -1.1920     1.8280 ha         1 T03       0.123000
     18 H7           0.4780    -0.9890    -1.3400 h1         1 T03       0.089700
     19 H7A          0.4940    -1.6040     0.3190 h1         1 T03       0.089700
     20 H81          3.8070     1.9000     0.6900 hn         1 T03       0.369000
     21 C7           0.1950    -0.7680    -0.3120 c3         1 T03       0.122900
     22 H8           5.8930     0.5150     0.1920 h5         1 T03       0.066100
@<TRIPOS>BOND
     1     1     9 1   
     2     2    13 1   
     3     2    21 1   
     4     3     5 ar  
     5     3    11 ar  
     6     3    21 1   
     7     4    12 1   
     8     4    13 1   
     9     4    20 1   
    10     5     7 ar  
    11     5    14 1   
    12     6     8 1   
    13     6    12 2   
    14     7     9 ar  
    15     7    15 1   
    16     8    13 2   
    17     9    10 ar  
    18    10    11 ar  
    19    10    16 1   
    20    11    17 1   
    21    12    22 1   
    22    18    21 1   
    23    19    21 1   
@<TRIPOS>SUBSTRUCTURE
     1 T03         1 TEMP              0 ****  ****    0 ROOT
