@<TRIPOS>MOLECULE
T04
   53    55     1     0     0
SMALL
No Charge or Current Charge


@<TRIPOS>ATOM
      1 OE1          7.5530     4.4730     1.1150 o          1 T04      -0.758500
      2 CD           6.4950     3.9000     1.3260 c          1 T04       0.712000
      3 OE2          5.5370     4.4320     1.8650 o          1 T04      -0.758500
      4 CG           6.3400     2.4500     0.8280 c3         1 T04      -0.200400
      5 CB           5.8020     2.4400    -0.6270 c3         1 T04      -0.055400
      6 C            5.3020     1.1320    -2.7780 c          1 T04       0.719000
      7 O            4.1340     1.3760    -3.0500 o          1 T04      -0.738500
      8 OXT          6.1450     0.8710    -3.6250 o          1 T04      -0.738500
      9 N            4.7720     0.1410    -0.5530 ns         1 T04      -0.416900
     10 CAU          5.1210    -0.8070     0.3910 c          1 T04       0.601700
     11 OBC          6.2940    -1.0120     0.6760 o          1 T04      -0.615100
     12 CAT          3.9700    -1.5390     1.0510 ca         1 T04      -0.153600
     13 CAQ          2.6410    -1.0490     0.9550 ca         1 T04      -0.046000
     14 CAS          4.1880    -2.7260     1.7920 ca         1 T04       0.231000
     15 CAR          3.1190    -3.3990     2.4030 ca         1 T04      -0.187000
     16 CAP          1.8120    -2.9040     2.2960 ca         1 T04      -0.081000
     17 CAO          1.5690    -1.7240     1.5730 ca         1 T04      -0.167300
     18 CAN          0.1550    -1.1770     1.4580 c3         1 T04       0.272100
     19 NAY         -0.4360    -1.6420     0.2020 nu         1 T04      -0.940200
     20 CAA         -1.7320    -1.4190    -0.2530 ca         1 T04       0.398000
     21 CAC         -2.2110    -2.1760    -1.3280 ca         1 T04      -0.222500
     22 CAE         -3.5140    -1.9760    -1.8140 ca         1 T04      -0.002000
     23 CAB         -2.5580    -0.4480     0.3330 ca         1 T04      -0.222500
     24 CAG         -3.8620    -0.2430    -0.1470 ca         1 T04      -0.002000
     25 CAF         -4.3530    -1.0160    -1.2180 ca         1 T04      -0.207800
     26 CAH         -5.7290    -0.8120    -1.7560 ce         1 T04       0.055800
     27 CAI         -6.9170    -0.6380    -1.0790 cd         1 T04      -0.230600
     28 SBG         -7.0520    -0.6200     0.6820 ss         1 T04      -0.024200
     29 CAL         -8.8150    -0.4060     0.6220 cs         1 T04       0.336000
     30 SBH         -9.8610    -0.2750     1.9180 s          1 T04      -0.479400
     31 NAX         -9.1550    -0.3720    -0.6960 ns         1 T04      -0.399500
     32 CAK         -8.2410    -0.4890    -1.6990 c          1 T04       0.578200
     33 FAS          5.4220    -3.2670     1.9160 f          1 T04      -0.149000
     34 OBE         -8.5040    -0.4720    -2.8910 o          1 T04      -0.510000
     35 CA           5.7110     1.0330    -1.2770 c3         1 T04      -0.053300
     36 HG1          7.3160     1.9510     0.7890 hc         1 T04       0.006700
     37 HB1          4.8120     2.9140    -0.6490 hc         1 T04       0.052700
     38 HG2          5.5960     1.9170     1.4330 hc         1 T04       0.006700
     39 HB2          6.4580     3.0640    -1.2470 hc         1 T04       0.052700
     40 H            3.7890     0.2200    -0.7780 hn         1 T04       0.297500
     41 HA           6.7100     0.5810    -1.2540 h1         1 T04       0.058700
     42 HAX        -10.1260    -0.2600    -0.9530 hn         1 T04       0.350500
     43 HAQ          2.4210    -0.1310     0.4140 ha         1 T04       0.143000
     44 HAR          3.3070    -4.3130     2.9610 ha         1 T04       0.118000
     45 HAP          0.9910    -3.4350     2.7740 ha         1 T04       0.101000
     46 HAN1        -0.4450    -1.5200     2.3130 h1         1 T04       0.056200
     47 HAN2         0.1820    -0.0780     1.4870 h1         1 T04       0.056200
     48 HAY          0.0830    -2.3670    -0.2930 hn         1 T04       0.503000
     49 HAC         -1.5770    -2.9250    -1.7930 ha         1 T04       0.124000
     50 HAB         -2.1970     0.1580     1.1570 ha         1 T04       0.124000
     51 HAE         -3.8740    -2.5740    -2.6500 ha         1 T04       0.109000
     52 HAG         -4.4810     0.5280     0.3050 ha         1 T04       0.109000
     53 HAH         -5.8100    -0.8550    -2.8440 ha         1 T04       0.188000
@<TRIPOS>BOND
     1     1     2 1   
     2     2     3 1   
     3     2     4 1   
     4     4     5 1   
     5     4    36 1   
     6     4    38 1   
     7     5    35 1   
     8     5    37 1   
     9     5    39 1   
    10     6     7 1   
    11     6     8 1   
    12     6    35 1   
    13     9    10 1   
    14     9    35 1   
    15     9    40 1   
    16    10    11 2   
    17    10    12 1   
    18    12    13 ar  
    19    12    14 ar  
    20    13    17 ar  
    21    13    43 1   
    22    14    15 ar  
    23    14    33 1   
    24    15    16 ar  
    25    15    44 1   
    26    16    17 ar  
    27    16    45 1   
    28    17    18 1   
    29    18    19 1   
    30    18    46 1   
    31    18    47 1   
    32    19    20 1   
    33    19    48 1   
    34    20    21 ar  
    35    20    23 ar  
    36    21    22 ar  
    37    21    49 1   
    38    22    25 ar  
    39    22    51 1   
    40    23    24 ar  
    41    23    50 1   
    42    24    25 ar  
    43    24    52 1   
    44    25    26 1   
    45    26    27 2   
    46    26    53 1   
    47    27    28 1   
    48    27    32 1   
    49    28    29 1   
    50    29    30 2   
    51    29    31 1   
    52    31    32 1   
    53    31    42 1   
    54    32    34 2   
    55    35    41 1   
@<TRIPOS>SUBSTRUCTURE
     1 T04         1 TEMP              0 ****  ****    0 ROOT
