@<TRIPOS>MOLECULE
T04
   53    55     1     0     0
SMALL
bcc


@<TRIPOS>ATOM
      1 OE1          3.9410     5.1510     0.1940 o          1 T04      -0.863800
      2 CD           4.6630     4.4400    -0.5380 c          1 T04       0.922600
      3 OE2          5.0550     4.7280    -1.6860 o          1 T04      -0.863800
      4 CG           5.0830     3.0810     0.0490 c3         1 T04      -0.200400
      5 CB           6.0780     2.2840    -0.7790 c3         1 T04      -0.055400
      6 C            7.6470     0.2930    -0.9130 c          1 T04       0.929600
      7 O            7.3850    -0.7600    -1.5170 o          1 T04      -0.843800
      8 OXT          8.7370     0.8990    -0.8850 o          1 T04      -0.843800
      9 N            5.3550     0.1120     0.0470 ns         1 T04      -0.483900
     10 CAU          5.3300    -0.9010     0.9190 c          1 T04       0.668700
     11 OBC          6.2180    -1.1330     1.7280 o          1 T04      -0.615100
     12 CAT          4.0740    -1.7170     0.8900 ca         1 T04      -0.153600
     13 CAQ          2.8210    -1.1090     0.8360 ca         1 T04      -0.064000
     14 CAS          4.1130    -3.1000     0.9750 ca         1 T04       0.195900
     15 CAR          2.9640    -3.8680     1.0030 ca         1 T04      -0.205000
     16 CAP          1.7330    -3.2360     0.9620 ca         1 T04      -0.099000
     17 CAO          1.6480    -1.8480     0.8790 ca         1 T04      -0.167300
     18 CAN          0.3080    -1.1660     0.8500 c3         1 T04       0.272100
     19 NAY         -0.4630    -1.6200    -0.2840 nu         1 T04      -0.746600
     20 CAA         -1.7920    -1.4390    -0.4300 ca         1 T04       0.259600
     21 CAC         -2.4320    -1.8730    -1.6100 ca         1 T04      -0.240500
     22 CAE         -3.7860    -1.7280    -1.7640 ca         1 T04      -0.020000
     23 CAB         -2.5880    -0.8370     0.5650 ca         1 T04      -0.240500
     24 CAG         -3.9460    -0.7000     0.3940 ca         1 T04      -0.020000
     25 CAF         -4.5950    -1.1410    -0.7710 ca         1 T04      -0.207800
     26 CAH         -6.0000    -1.0360    -1.0330 ce         1 T04       0.105800
     27 CAI         -7.0160    -0.5200    -0.3070 cd         1 T04      -0.230600
     28 SBG         -6.9710     0.2330     1.2780 ss         1 T04      -0.024200
     29 CAL         -8.6850     0.5280     1.2720 cs         1 T04       0.403000
     30 SBH         -9.4830     1.2580     2.5010 s          1 T04      -0.479400
     31 NAX         -9.2240     0.0670     0.1240 ns         1 T04      -0.533500
     32 CAK         -8.3930    -0.5290    -0.8130 c          1 T04       0.720700
     33 FAS          5.2950    -3.7260     0.9980 f          1 T04      -0.113900
     34 OBE         -8.7890    -0.9690    -1.8680 o          1 T04      -0.585500
     35 CA           6.5040     0.9730    -0.1150 c3         1 T04      -0.053300
     36 HG1          5.4950     3.2490     1.0500 hc         1 T04       0.006700
     37 HB1          5.6650     2.0730    -1.7710 hc         1 T04       0.052700
     38 HG2          4.1720     2.4960     0.2140 hc         1 T04       0.006700
     39 HB2          6.9800     2.8730    -0.9460 hc         1 T04       0.052700
     40 H            4.6740     0.1090    -0.6960 hn         1 T04       0.297500
     41 HA           6.8870     1.2080     0.8820 h1         1 T04       0.058700
     42 HAX        -10.2180     0.1560    -0.0460 hn         1 T04       0.350500
     43 HAQ          2.7600    -0.0280     0.7820 ha         1 T04       0.161000
     44 HAR          3.0350    -4.9460     1.0580 ha         1 T04       0.136000
     45 HAP          0.8320    -3.8350     0.9970 ha         1 T04       0.119000
     46 HAN1        -0.2350    -1.4080     1.7670 h1         1 T04       0.056200
     47 HAN2         0.4440    -0.0790     0.8390 h1         1 T04       0.056200
     48 HAY          0.0550    -1.8970    -1.1040 hn         1 T04       0.447800
     49 HAC         -1.8460    -2.3330    -2.3970 ha         1 T04       0.142000
     50 HAB         -2.1400    -0.4620     1.4750 ha         1 T04       0.142000
     51 HAE         -4.2470    -2.0780    -2.6800 ha         1 T04       0.127000
     52 HAG         -4.4920    -0.2290     1.1990 ha         1 T04       0.127000
     53 HAH         -6.3120    -1.4450    -1.9900 ha         1 T04       0.138000
@<TRIPOS>BOND
     1     1     2 1   
     2     2     3 1   
     3     2     4 1   
     4     4     5 1   
     5     4    36 1   
     6     4    38 1   
     7     5    35 1   
     8     5    37 1   
     9     5    39 1   
    10     6     7 1   
    11     6     8 1   
    12     6    35 1   
    13     9    10 1   
    14     9    35 1   
    15     9    40 1   
    16    10    11 2   
    17    10    12 1   
    18    12    13 ar  
    19    12    14 ar  
    20    13    17 ar  
    21    13    43 1   
    22    14    15 ar  
    23    14    33 1   
    24    15    16 ar  
    25    15    44 1   
    26    16    17 ar  
    27    16    45 1   
    28    17    18 1   
    29    18    19 1   
    30    18    46 1   
    31    18    47 1   
    32    19    20 1   
    33    19    48 1   
    34    20    21 ar  
    35    20    23 ar  
    36    21    22 ar  
    37    21    49 1   
    38    22    25 ar  
    39    22    51 1   
    40    23    24 ar  
    41    23    50 1   
    42    24    25 ar  
    43    24    52 1   
    44    25    26 1   
    45    26    27 2   
    46    26    53 1   
    47    27    28 1   
    48    27    32 1   
    49    28    29 1   
    50    29    30 2   
    51    29    31 1   
    52    31    32 1   
    53    31    42 1   
    54    32    34 2   
    55    35    41 1   
@<TRIPOS>SUBSTRUCTURE
     1 T04         1 TEMP              0 ****  ****    0 ROOT
